CHEMBL2348991


 35 39  0  0  0  0  0  0  0  0999 V2000
  -15.9969    0.7759  -14.9129 C   0  0  0  0  0  0  0  0  0  0  0  0
  -17.2491    1.1808  -15.3964 C   0  0  0  0  0  0  0  0  0  0  0  0
  -17.4358    2.4733  -15.8915 C   0  0  0  0  0  0  0  0  0  0  0  0
  -16.3951    3.3986  -15.8917 C   0  0  0  0  0  0  0  0  0  0  0  0
  -15.1443    3.0086  -15.4206 C   0  0  0  0  0  0  0  0  0  0  0  0
  -14.9551    1.7128  -14.9317 C   0  0  0  0  0  0  0  0  0  0  0  0
  -13.7406    1.3660  -14.4786 F   0  0  0  0  0  0  0  0  0  0  0  0
  -15.5538   -0.7973  -13.0325 C   0  0  0  0  0  0  0  0  0  0  0  0
  -15.6816    0.0619  -12.1692 O   0  0  0  0  0  0  0  0  0  0  0  0
  -15.7381   -0.5218  -14.3796 N   0  0  0  0  0  0  0  0  0  0  0  0
  -15.7973   -1.2905  -15.0336 H   0  0  0  0  0  0  0  0  0  0  0  0
  -15.4633   -5.6883  -11.5622 C   0  0  0  0  0  0  0  0  0  0  0  0
  -15.1633   -4.3192  -12.0422 C   0  0  0  0  0  0  0  0  0  0  0  0
  -16.0369   -3.2279  -12.2507 C   0  0  0  0  0  0  0  0  0  0  0  0
  -15.2404   -2.1683  -12.6771 C   0  0  0  0  0  0  0  0  0  0  0  0
  -13.9658   -2.7087  -12.7277 N   0  0  0  0  0  0  0  0  0  0  0  0
  -12.7120   -2.1036  -13.1171 C   0  0  0  0  0  0  0  0  0  0  0  0
  -13.9061   -3.9961  -12.3363 N   0  0  0  0  0  0  0  0  0  0  0  0
  -18.7545    2.8394  -16.2384 O   0  0  0  0  0  0  0  0  0  0  0  0
  -19.8445    2.3909  -15.5037 C   0  0  0  0  0  0  0  0  0  0  0  0
  -20.4517    3.5681  -14.8412 C   0  0  0  0  0  0  0  0  0  0  0  0
  -21.5529    3.3375  -14.1143 C   0  0  0  0  0  0  0  0  0  0  0  0
  -22.0433    2.0188  -14.0063 C   0  0  0  0  0  0  0  0  0  0  0  0
  -23.0862    1.5349  -13.3736 N   0  0  0  0  0  0  0  0  0  0  0  0
  -23.0791    0.1941  -13.6200 C   0  0  0  0  0  0  0  0  0  0  0  0
  -22.0137   -0.1529  -14.4200 C   0  0  0  0  0  0  0  0  0  0  0  0
  -21.3496    1.0198  -14.6701 N   0  0  0  0  0  0  0  0  0  0  0  0
  -20.2359    1.1583  -15.4466 N   0  0  0  0  0  0  0  0  0  0  0  0
  -24.0136   -0.6812  -13.1185 N   0  0  0  0  0  0  0  0  0  0  0  0
  -24.9664   -1.3163  -13.8880 C   0  0  0  0  0  0  0  0  0  0  0  0
  -25.1220   -1.2521  -15.0950 O   0  0  0  0  0  0  0  0  0  0  0  0
  -24.0003   -0.8384  -12.1224 H   0  0  0  0  0  0  0  0  0  0  0  0
  -25.9123   -2.1479  -13.0741 C   0  0  0  0  0  0  0  0  0  0  0  0
  -27.4099   -2.0343  -13.2653 C   0  0  0  0  0  0  0  0  0  0  0  0
  -26.7712   -1.4605  -12.0358 C   0  0  0  0  0  0  0  0  0  0  0  0
 12 13  1  0  0  0
 13 14  1  0  0  0
 13 18  2  0  0  0
 14 15  2  0  0  0
 15  8  1  0  0  0
 15 16  1  0  0  0
  8  9  2  0  0  0
  8 10  1  0  0  0
 10  1  1  0  0  0
 10 11  1  0  0  0
  1  2  1  0  0  0
  1  6  2  0  0  0
  2  3  2  0  0  0
  3 19  1  0  0  0
  3  4  1  0  0  0
 19 20  1  0  0  0
 20 21  1  0  0  0
 20 28  2  0  0  0
 21 22  2  0  0  0
 22 23  1  0  0  0
 23 24  2  0  0  0
 23 27  1  0  0  0
 24 25  1  0  0  0
 25 29  1  0  0  0
 25 26  2  0  0  0
 29 30  1  0  0  0
 29 32  1  0  0  0
 30 31  2  0  0  0
 30 33  1  0  0  0
 33 34  1  0  0  0
 33 35  1  0  0  0
 34 35  1  0  0  0
 26 27  1  0  0  0
 27 28  1  0  0  0
  4  5  2  0  0  0
  5  6  1  0  0  0
  6  7  1  0  0  0
 16 17  1  0  0  0
 16 18  1  0  0  0
M  END
> <minimizedAffinity>
-9.93253

$$$$
