CHEMBL3589812


 32 35  0  0  0  0  0  0  0  0999 V2000
  -27.8273   -2.3185   -7.8706 C   0  0  0  0  0  0  0  0  0  0  0  0
  -28.4258   -3.5577   -8.0174 C   0  0  0  0  0  0  0  0  0  0  0  0
  -29.4758   -3.9276   -7.2085 C   0  0  0  0  0  0  0  0  0  0  0  0
  -29.8474   -3.1841   -6.0868 C   0  0  0  0  0  0  0  0  0  0  0  0
  -29.2765   -1.9236   -5.9374 C   0  0  0  0  0  0  0  0  0  0  0  0
  -28.2753   -1.4844   -6.8357 C   0  0  0  0  0  0  0  0  0  0  0  0
  -30.8045   -3.7303   -5.1956 N   0  0  0  0  0  0  0  0  0  0  0  0
  -30.3136   -4.6152   -4.3645 C   0  0  0  0  0  0  0  0  0  0  0  0
  -28.9473   -4.5124   -3.6257 C   0  0  0  0  0  0  0  0  0  0  0  0
  -28.5114   -3.5268   -3.0878 O   0  0  0  0  0  0  0  0  0  0  0  0
  -28.3486   -5.7471   -3.7852 N   0  0  0  0  0  0  0  0  0  0  0  0
  -29.1784   -6.5999   -4.5051 C   0  0  0  0  0  0  0  0  0  0  0  0
  -28.7645   -7.6853   -5.2543 C   0  0  0  0  0  0  0  0  0  0  0  0
  -29.6785   -8.2213   -6.1734 C   0  0  0  0  0  0  0  0  0  0  0  0
  -30.9886   -7.7108   -6.2756 C   0  0  0  0  0  0  0  0  0  0  0  0
  -32.0587   -8.3680   -7.4533 Cl  0  0  0  0  0  0  0  0  0  0  0  0
  -31.4000   -6.6138   -5.5194 C   0  0  0  0  0  0  0  0  0  0  0  0
  -30.4643   -6.0581   -4.6631 C   0  0  0  0  0  0  0  0  0  0  0  0
  -27.3636   -5.8849   -3.5979 H   0  0  0  0  0  0  0  0  0  0  0  0
  -28.0790   -1.5156  -10.6161 O   0  0  0  0  0  0  0  0  0  0  0  0
  -26.9788   -1.6421  -10.0905 C   0  0  0  0  0  0  0  0  0  0  0  0
  -25.7920   -1.5638  -10.7895 N   0  0  0  0  0  0  0  0  0  0  0  0
  -26.7846   -1.9225   -8.7408 N   0  0  0  0  0  0  0  0  0  0  0  0
  -24.9609   -1.8535  -10.2980 H   0  0  0  0  0  0  0  0  0  0  0  0
  -25.9059   -1.6612   -8.3229 H   0  0  0  0  0  0  0  0  0  0  0  0
  -25.6868   -1.4059  -12.1937 C   0  0  0  0  0  0  0  0  0  0  0  0
  -26.7111   -1.7271  -13.0979 C   0  0  0  0  0  0  0  0  0  0  0  0
  -26.5061   -1.6352  -14.4759 C   0  0  0  0  0  0  0  0  0  0  0  0
  -25.2822   -1.1987  -14.9520 C   0  0  0  0  0  0  0  0  0  0  0  0
  -25.0749   -1.1301  -16.2726 F   0  0  0  0  0  0  0  0  0  0  0  0
  -24.2659   -0.8345  -14.0766 C   0  0  0  0  0  0  0  0  0  0  0  0
  -24.4700   -0.9339  -12.6967 C   0  0  0  0  0  0  0  0  0  0  0  0
 20 21  2  0  0  0
 21 22  1  0  0  0
 21 23  1  0  0  0
 22 26  1  0  0  0
 22 24  1  0  0  0
 26 27  1  0  0  0
 26 32  2  0  0  0
 27 28  2  0  0  0
 28 29  1  0  0  0
 29 30  1  0  0  0
 29 31  2  0  0  0
 31 32  1  0  0  0
 23  1  1  0  0  0
 23 25  1  0  0  0
  1  2  1  0  0  0
  1  6  2  0  0  0
  2  3  2  0  0  0
  3  4  1  0  0  0
  4  7  1  0  0  0
  4  5  2  0  0  0
  7  8  2  0  0  0
  8  9  1  0  0  0
  8 18  1  0  0  0
  9 10  2  0  0  0
  9 11  1  0  0  0
 11 12  1  0  0  0
 11 19  1  0  0  0
 12 13  1  0  0  0
 12 18  2  0  0  0
 13 14  2  0  0  0
 14 15  1  0  0  0
 15 16  1  0  0  0
 15 17  2  0  0  0
 17 18  1  0  0  0
  5  6  1  0  0  0
M  END
> <minimizedAffinity>
-10.80174

$$$$
