CHEMBL3918564


 48 51  0  0  0  0  0  0  0  0999 V2000
  -13.1342    2.9392  -14.7078 C   0  0  0  0  0  0  0  0  0  0  0  0
  -14.2917    3.1918  -15.4177 C   0  0  0  0  0  0  0  0  0  0  0  0
  -15.3150    2.2339  -15.1742 C   0  0  0  0  0  0  0  0  0  0  0  0
  -16.5444    2.2372  -15.7564 N   0  0  0  0  0  0  0  0  0  0  0  0
  -17.3569    1.2221  -15.4147 C   0  0  0  0  0  0  0  0  0  0  0  0
  -17.0477    0.2255  -14.5124 C   0  0  0  0  0  0  0  0  0  0  0  0
  -15.8221    0.2783  -13.8496 C   0  0  0  0  0  0  0  0  0  0  0  0
  -14.9212    1.2786  -14.2402 C   0  0  0  0  0  0  0  0  0  0  0  0
  -13.3059    1.5528  -13.7220 S   0  0  0  0  0  0  0  0  0  0  0  0
  -12.0807    5.0996  -14.6907 N   0  0  0  0  0  0  0  0  0  0  0  0
  -11.9125    3.7288  -14.7349 C   0  0  0  0  0  0  0  0  0  0  0  0
  -10.7974    3.2228  -14.8059 O   0  0  0  0  0  0  0  0  0  0  0  0
  -13.0256    5.4631  -14.7131 H   0  0  0  0  0  0  0  0  0  0  0  0
  -10.9757    6.0214  -14.8598 C   0  0  0  0  0  0  0  0  0  0  0  0
  -10.9504    6.5723  -16.2828 C   0  0  0  0  0  0  0  0  0  0  0  0
  -12.3600    6.9099  -16.7865 C   0  0  0  0  0  0  0  0  0  0  0  0
  -12.7517    6.2995  -18.0749 N   0  0  0  0  0  0  0  0  0  0  0  0
  -14.2062    6.0340  -18.1824 C   0  0  0  0  0  0  0  0  0  0  0  0
  -14.8879    6.8846  -19.2494 C   0  0  0  0  0  0  0  0  0  0  0  0
  -15.1606    6.4812  -20.3750 O   0  0  0  0  0  0  0  0  0  0  0  0
  -14.5728    9.2034  -19.5541 C   0  0  0  0  0  0  0  0  0  0  0  0
  -15.1318    8.1404  -18.7817 O   0  0  0  0  0  0  0  0  0  0  0  0
  -11.9685    5.0612  -18.3261 C   0  0  0  0  0  0  0  0  0  0  0  0
  -12.1720    4.4888  -19.7315 C   0  0  0  0  0  0  0  0  0  0  0  0
  -12.2010    5.1258  -20.7754 O   0  0  0  0  0  0  0  0  0  0  0  0
  -12.3101    3.1292  -19.6394 O   0  0  0  0  0  0  0  0  0  0  0  0
  -13.4782    2.7058  -18.9391 C   0  0  0  0  0  0  0  0  0  0  0  0
  -15.4454   -0.6247  -12.8825 O   0  0  0  0  0  0  0  0  0  0  0  0
  -15.2509   -1.9365  -13.2435 C   0  0  0  0  0  0  0  0  0  0  0  0
  -13.9594   -2.2657  -13.6312 C   0  0  0  0  0  0  0  0  0  0  0  0
  -13.6725   -3.5605  -14.0619 C   0  0  0  0  0  0  0  0  0  0  0  0
  -14.6639   -4.5465  -14.1010 C   0  0  0  0  0  0  0  0  0  0  0  0
  -15.9492   -4.2186  -13.6668 C   0  0  0  0  0  0  0  0  0  0  0  0
  -16.2363   -2.9266  -13.2133 C   0  0  0  0  0  0  0  0  0  0  0  0
  -14.4417   -5.8588  -14.5698 N   0  0  0  0  0  0  0  0  0  0  0  0
  -14.0230   -6.1896  -15.8406 C   0  0  0  0  0  0  0  0  0  0  0  0
  -13.7035   -5.3847  -16.7088 O   0  0  0  0  0  0  0  0  0  0  0  0
  -14.0308   -7.5632  -16.0510 N   0  0  0  0  0  0  0  0  0  0  0  0
  -14.4639   -6.6085  -13.8949 H   0  0  0  0  0  0  0  0  0  0  0  0
  -14.8337   -8.0332  -15.6504 H   0  0  0  0  0  0  0  0  0  0  0  0
  -13.6507   -8.0377  -17.3329 C   0  0  0  0  0  0  0  0  0  0  0  0
  -13.7453   -7.2156  -18.4618 C   0  0  0  0  0  0  0  0  0  0  0  0
  -13.5497   -7.7417  -19.7434 C   0  0  0  0  0  0  0  0  0  0  0  0
  -13.7170   -6.8708  -20.9536 C   0  0  0  0  0  0  0  0  0  0  0  0
  -13.2612   -9.1058  -19.8819 C   0  0  0  0  0  0  0  0  0  0  0  0
  -13.1132   -9.9171  -18.7533 C   0  0  0  0  0  0  0  0  0  0  0  0
  -13.2834   -9.3724  -17.4854 C   0  0  0  0  0  0  0  0  0  0  0  0
  -13.1876  -10.1651  -16.4066 F   0  0  0  0  0  0  0  0  0  0  0  0
 21 22  1  0  0  0
 22 19  1  0  0  0
 19 20  2  0  0  0
 19 18  1  0  0  0
 18 17  1  0  0  0
 17 16  1  0  0  0
 17 23  1  0  0  0
 16 15  1  0  0  0
 15 14  1  0  0  0
 14 10  1  0  0  0
 10 11  1  0  0  0
 10 13  1  0  0  0
 11 12  2  0  0  0
 11  1  1  0  0  0
  1  2  2  0  0  0
  1  9  1  0  0  0
  2  3  1  0  0  0
  3  4  1  0  0  0
  3  8  2  0  0  0
  4  5  2  0  0  0
  5  6  1  0  0  0
  6  7  2  0  0  0
  7 28  1  0  0  0
  7  8  1  0  0  0
 28 29  1  0  0  0
 29 30  1  0  0  0
 29 34  2  0  0  0
 30 31  2  0  0  0
 31 32  1  0  0  0
 32 35  1  0  0  0
 32 33  2  0  0  0
 35 36  1  0  0  0
 35 39  1  0  0  0
 36 37  2  0  0  0
 36 38  1  0  0  0
 38 41  1  0  0  0
 38 40  1  0  0  0
 41 42  1  0  0  0
 41 47  2  0  0  0
 42 43  2  0  0  0
 43 44  1  0  0  0
 43 45  1  0  0  0
 45 46  2  0  0  0
 46 47  1  0  0  0
 47 48  1  0  0  0
 33 34  1  0  0  0
  8  9  1  0  0  0
 23 24  1  0  0  0
 24 25  2  0  0  0
 24 26  1  0  0  0
 26 27  1  0  0  0
M  END
> <minimizedAffinity>
-6.17632

$$$$
