CHEMBL3972617


 40 45  0  0  0  0  0  0  0  0999 V2000
  -27.9382   -2.5132   -8.4519 N   0  0  0  0  0  0  0  0  0  0  0  0
  -27.3741   -2.0108   -9.6849 C   0  0  0  0  0  0  0  0  0  0  0  0
  -28.2558   -1.8147  -10.7518 C   0  0  0  0  0  0  0  0  0  0  0  0
  -27.8249   -1.7222  -12.0552 C   0  0  0  0  0  0  0  0  0  0  0  0
  -26.5077   -1.5994  -12.3509 C   0  0  0  0  0  0  0  0  0  0  0  0
  -26.2672   -1.6617  -13.6627 N   0  0  0  0  0  0  0  0  0  0  0  0
  -25.0673   -1.2394  -14.0585 C   0  0  0  0  0  0  0  0  0  0  0  0
  -24.1625   -0.6906  -13.1731 C   0  0  0  0  0  0  0  0  0  0  0  0
  -24.3470   -0.7820  -11.8006 N   0  0  0  0  0  0  0  0  0  0  0  0
  -25.5672   -1.3393  -11.3478 C   0  0  0  0  0  0  0  0  0  0  0  0
  -26.0217   -1.6621   -9.9934 C   0  0  0  0  0  0  0  0  0  0  0  0
  -23.1491    0.1592  -13.7966 C   0  0  0  0  0  0  0  0  0  0  0  0
  -21.8531   -0.1781  -14.2805 C   0  0  0  0  0  0  0  0  0  0  0  0
  -21.0857    0.8956  -14.5147 N   0  0  0  0  0  0  0  0  0  0  0  0
  -21.8738    1.9243  -14.1618 N   0  0  0  0  0  0  0  0  0  0  0  0
  -21.5240    3.2801  -14.5151 C   0  0  0  0  0  0  0  0  0  0  0  0
  -23.0395    1.5235  -13.5706 C   0  0  0  0  0  0  0  0  0  0  0  0
  -28.0358   -1.3864   -4.8283 C   0  0  0  0  0  0  0  0  0  0  0  0
  -28.5030   -0.0855   -4.9703 C   0  0  0  0  0  0  0  0  0  0  0  0
  -28.7447    0.4281   -6.2439 C   0  0  0  0  0  0  0  0  0  0  0  0
  -28.5385   -0.3708   -7.3789 C   0  0  0  0  0  0  0  0  0  0  0  0
  -28.0820   -1.6897   -7.2846 C   0  0  0  0  0  0  0  0  0  0  0  0
  -27.8393   -2.1794   -5.9727 C   0  0  0  0  0  0  0  0  0  0  0  0
  -28.7549   -2.9029   -3.1628 C   0  0  0  0  0  0  0  0  0  0  0  0
  -27.7672   -1.9756   -3.6172 O   0  0  0  0  0  0  0  0  0  0  0  0
  -29.1981    1.6886   -6.5167 O   0  0  0  0  0  0  0  0  0  0  0  0
  -30.6112    1.8655   -6.5751 C   0  0  0  0  0  0  0  0  0  0  0  0
  -28.0109   -4.0048   -8.2470 C   0  0  0  0  0  0  0  0  0  0  0  0
  -29.3380   -4.6781   -7.6690 C   0  0  0  0  0  0  0  0  0  0  0  0
  -29.2415   -5.7808   -6.6727 N   0  0  0  0  0  0  0  0  0  0  0  0
  -28.3774   -6.8751   -7.1451 C   0  0  0  0  0  0  0  0  0  0  0  0
  -29.0117   -7.6147   -8.3287 C   0  0  0  0  0  0  0  0  0  0  0  0
  -30.1897   -8.3216   -7.8760 N   0  0  0  0  0  0  0  0  0  0  0  0
  -30.3599   -9.6916   -7.9724 C   0  0  0  0  0  0  0  0  0  0  0  0
  -31.3962  -10.2619   -7.6312 O   0  0  0  0  0  0  0  0  0  0  0  0
  -31.2005   -7.4311   -7.2892 C   0  0  0  0  0  0  0  0  0  0  0  0
  -30.5705   -6.3821   -6.3103 C   0  0  0  0  0  0  0  0  0  0  0  0
  -29.2232  -10.4975   -8.5378 C   0  0  0  0  0  0  0  0  0  0  0  0
  -29.2400  -10.8908   -9.9983 C   0  0  0  0  0  0  0  0  0  0  0  0
  -29.3863  -11.9433   -8.9394 C   0  0  0  0  0  0  0  0  0  0  0  0
 24 25  1  0  0  0
 25 18  1  0  0  0
 18 19  1  0  0  0
 18 23  2  0  0  0
 19 20  2  0  0  0
 20 26  1  0  0  0
 20 21  1  0  0  0
 26 27  1  0  0  0
 21 22  2  0  0  0
 22  1  1  0  0  0
 22 23  1  0  0  0
  1 28  1  0  0  0
  1  2  1  0  0  0
 28 29  1  0  0  0
 29 30  1  0  0  0
 30 31  1  0  0  0
 30 37  1  0  0  0
 31 32  1  0  0  0
 32 33  1  0  0  0
 33 34  1  0  0  0
 33 36  1  0  0  0
 34 35  2  0  0  0
 34 38  1  0  0  0
 38 39  1  0  0  0
 38 40  1  0  0  0
 39 40  1  0  0  0
 36 37  1  0  0  0
  2  3  1  0  0  0
  2 11  2  0  0  0
  3  4  2  0  0  0
  4  5  1  0  0  0
  5  6  1  0  0  0
  5 10  2  0  0  0
  6  7  2  0  0  0
  7  8  1  0  0  0
  8 12  1  0  0  0
  8  9  2  0  0  0
 12 13  1  0  0  0
 12 17  2  0  0  0
 13 14  2  0  0  0
 14 15  1  0  0  0
 15 16  1  0  0  0
 15 17  1  0  0  0
  9 10  1  0  0  0
 10 11  1  0  0  0
M  END
> <minimizedAffinity>
-9.50417

$$$$
