CHEMBL98896


 19 21  0  0  0  0  0  0  0  0999 V2000
  -19.6457    2.3712  -14.9378 C   0  0  0  0  0  0  0  0  0  0  0  0
  -20.3194    3.5089  -14.5441 C   0  0  0  0  0  0  0  0  0  0  0  0
  -21.6130    3.3295  -14.1227 N   0  0  0  0  0  0  0  0  0  0  0  0
  -21.9469    2.0614  -14.1560 C   0  0  0  0  0  0  0  0  0  0  0  0
  -20.7111    1.0281  -14.7818 S   0  0  0  0  0  0  0  0  0  0  0  0
  -15.5738    1.9561  -16.1851 C   0  0  0  0  0  0  0  0  0  0  0  0
  -16.2367    0.8922  -15.5841 C   0  0  0  0  0  0  0  0  0  0  0  0
  -17.5680    1.0343  -15.1922 C   0  0  0  0  0  0  0  0  0  0  0  0
  -18.2583    2.2423  -15.3938 C   0  0  0  0  0  0  0  0  0  0  0  0
  -17.5730    3.3049  -15.9987 C   0  0  0  0  0  0  0  0  0  0  0  0
  -16.2404    3.1609  -16.3934 C   0  0  0  0  0  0  0  0  0  0  0  0
  -23.1206    1.5489  -13.7258 N   0  0  0  0  0  0  0  0  0  0  0  0
  -23.9862    1.9227  -14.0944 H   0  0  0  0  0  0  0  0  0  0  0  0
  -23.3111    0.2243  -13.3218 C   0  0  0  0  0  0  0  0  0  0  0  0
  -24.0975   -0.7099  -14.0050 C   0  0  0  0  0  0  0  0  0  0  0  0
  -24.3461   -1.9710  -13.5609 N   0  0  0  0  0  0  0  0  0  0  0  0
  -23.7586   -2.2831  -12.3928 C   0  0  0  0  0  0  0  0  0  0  0  0
  -22.9401   -1.3919  -11.7229 C   0  0  0  0  0  0  0  0  0  0  0  0
  -22.6957   -0.1346  -12.1702 N   0  0  0  0  0  0  0  0  0  0  0  0
  6  7  1  0  0  0
  6 11  2  0  0  0
  7  8  2  0  0  0
  8  9  1  0  0  0
  9  1  1  0  0  0
  9 10  2  0  0  0
  1  2  2  0  0  0
  1  5  1  0  0  0
  2  3  1  0  0  0
  3  4  2  0  0  0
  4 12  1  0  0  0
  4  5  1  0  0  0
 12 14  1  0  0  0
 12 13  1  0  0  0
 14 15  1  0  0  0
 14 19  2  0  0  0
 15 16  2  0  0  0
 16 17  1  0  0  0
 17 18  2  0  0  0
 18 19  1  0  0  0
 10 11  1  0  0  0
M  END
> <minimizedAffinity>
-7.56494

$$$$
