CHEMBL258141


 33 36  0  0  0  0  0  0  0  0999 V2000
  -13.5390   -3.5932  -10.9405 C   0  0  0  0  0  0  0  0  0  0  0  0
  -14.9403   -3.5872  -10.8761 C   0  0  0  0  0  0  0  0  0  0  0  0
  -15.7208   -3.0601  -11.9068 C   0  0  0  0  0  0  0  0  0  0  0  0
  -15.1292   -2.4687  -13.0229 C   0  0  0  0  0  0  0  0  0  0  0  0
  -13.7418   -2.5201  -13.1412 C   0  0  0  0  0  0  0  0  0  0  0  0
  -12.9641   -3.0999  -12.1236 C   0  0  0  0  0  0  0  0  0  0  0  0
  -12.1521   -6.5239  -12.0304 N   0  0  0  0  0  0  0  0  0  0  0  0
  -11.7327   -6.4127  -10.7584 C   0  0  0  0  0  0  0  0  0  0  0  0
  -10.9536   -7.3505  -10.2231 N   0  0  0  0  0  0  0  0  0  0  0  0
  -10.6967   -6.8784   -8.9944 N   0  0  0  0  0  0  0  0  0  0  0  0
  -11.2894   -5.6835   -8.7239 C   0  0  0  0  0  0  0  0  0  0  0  0
  -11.1550   -5.0040   -7.5709 N   0  0  0  0  0  0  0  0  0  0  0  0
  -11.8477   -3.8526   -7.5618 C   0  0  0  0  0  0  0  0  0  0  0  0
  -12.6380   -3.3877   -8.6036 C   0  0  0  0  0  0  0  0  0  0  0  0
  -12.7525   -4.1195   -9.8085 C   0  0  0  0  0  0  0  0  0  0  0  0
  -12.0232   -5.3378   -9.8591 C   0  0  0  0  0  0  0  0  0  0  0  0
  -11.7056   -7.2651  -12.5610 H   0  0  0  0  0  0  0  0  0  0  0  0
  -12.2867   -5.6812  -12.5747 H   0  0  0  0  0  0  0  0  0  0  0  0
  -10.0939   -7.4059   -8.3751 H   0  0  0  0  0  0  0  0  0  0  0  0
  -15.8875   -1.8285  -14.0305 N   0  0  0  0  0  0  0  0  0  0  0  0
  -16.3432   -0.5248  -13.9388 C   0  0  0  0  0  0  0  0  0  0  0  0
  -16.0299    0.2677  -13.0563 O   0  0  0  0  0  0  0  0  0  0  0  0
  -17.2483   -0.2178  -14.9487 N   0  0  0  0  0  0  0  0  0  0  0  0
  -15.8611   -2.2278  -14.9597 H   0  0  0  0  0  0  0  0  0  0  0  0
  -17.8372   -0.9989  -15.2035 H   0  0  0  0  0  0  0  0  0  0  0  0
  -17.8639    1.0569  -14.9354 C   0  0  0  0  0  0  0  0  0  0  0  0
  -19.2121    1.2045  -14.5837 C   0  0  0  0  0  0  0  0  0  0  0  0
  -19.8380    2.4346  -14.7415 C   0  0  0  0  0  0  0  0  0  0  0  0
  -21.1366    2.5595  -14.4316 F   0  0  0  0  0  0  0  0  0  0  0  0
  -19.1491    3.5247  -15.2469 C   0  0  0  0  0  0  0  0  0  0  0  0
  -17.8007    3.3784  -15.5505 C   0  0  0  0  0  0  0  0  0  0  0  0
  -17.1308    4.4170  -16.0663 F   0  0  0  0  0  0  0  0  0  0  0  0
  -17.1397    2.1650  -15.3704 C   0  0  0  0  0  0  0  0  0  0  0  0
  7  8  1  0  0  0
  7 17  1  0  0  0
  7 18  1  0  0  0
  8  9  2  0  0  0
  8 16  1  0  0  0
  9 10  1  0  0  0
 10 11  1  0  0  0
 10 19  1  0  0  0
 11 12  1  0  0  0
 11 16  2  0  0  0
 12 13  2  0  0  0
 13 14  1  0  0  0
 14 15  2  0  0  0
 15  1  1  0  0  0
 15 16  1  0  0  0
  1  2  1  0  0  0
  1  6  2  0  0  0
  2  3  2  0  0  0
  3  4  1  0  0  0
  4 20  1  0  0  0
  4  5  2  0  0  0
 20 21  1  0  0  0
 20 24  1  0  0  0
 21 22  2  0  0  0
 21 23  1  0  0  0
 23 26  1  0  0  0
 23 25  1  0  0  0
 26 27  1  0  0  0
 26 33  2  0  0  0
 27 28  2  0  0  0
 28 29  1  0  0  0
 28 30  1  0  0  0
 30 31  2  0  0  0
 31 32  1  0  0  0
 31 33  1  0  0  0
  5  6  1  0  0  0
M  END
> <minimizedAffinity>
-9.11919

$$$$
