CHEMBL4514617


 40 44  0  0  0  0  0  0  0  0999 V2000
  -27.4173   -1.8675  -10.2063 C   0  0  0  0  0  0  0  0  0  0  0  0
  -26.0486   -1.9275   -9.9718 C   0  0  0  0  0  0  0  0  0  0  0  0
  -25.1487   -1.5985  -10.9829 C   0  0  0  0  0  0  0  0  0  0  0  0
  -25.5877   -1.2601  -12.2660 C   0  0  0  0  0  0  0  0  0  0  0  0
  -26.9650   -1.2816  -12.5227 C   0  0  0  0  0  0  0  0  0  0  0  0
  -27.8750   -1.5857  -11.4955 C   0  0  0  0  0  0  0  0  0  0  0  0
  -24.7027   -0.8803  -13.3025 N   0  0  0  0  0  0  0  0  0  0  0  0
  -23.6493    0.0072  -13.1649 C   0  0  0  0  0  0  0  0  0  0  0  0
  -23.2677    0.4991  -12.1084 O   0  0  0  0  0  0  0  0  0  0  0  0
  -23.0671    0.3284  -14.3850 N   0  0  0  0  0  0  0  0  0  0  0  0
  -24.7854   -1.3656  -14.1822 H   0  0  0  0  0  0  0  0  0  0  0  0
  -23.7170    0.3989  -15.1542 H   0  0  0  0  0  0  0  0  0  0  0  0
  -21.9267    1.1706  -14.4242 C   0  0  0  0  0  0  0  0  0  0  0  0
  -22.0532    2.5570  -14.3334 C   0  0  0  0  0  0  0  0  0  0  0  0
  -20.9283    3.3754  -14.4294 C   0  0  0  0  0  0  0  0  0  0  0  0
  -19.6643    2.8176  -14.6357 C   0  0  0  0  0  0  0  0  0  0  0  0
  -18.3481    3.9271  -14.7406 Cl  0  0  0  0  0  0  0  0  0  0  0  0
  -19.5165    1.4293  -14.7425 C   0  0  0  0  0  0  0  0  0  0  0  0
  -20.6643    0.6099  -14.5948 C   0  0  0  0  0  0  0  0  0  0  0  0
  -18.2198    0.7357  -15.0675 C   0  0  0  0  0  0  0  0  0  0  0  0
  -17.4617    1.2807  -16.0520 F   0  0  0  0  0  0  0  0  0  0  0  0
  -17.4033    0.6637  -13.9765 F   0  0  0  0  0  0  0  0  0  0  0  0
  -18.4275   -0.5604  -15.4440 F   0  0  0  0  0  0  0  0  0  0  0  0
  -28.3657   -2.1251   -9.2427 O   0  0  0  0  0  0  0  0  0  0  0  0
  -28.9075   -3.1682   -4.2674 C   0  0  0  0  0  0  0  0  0  0  0  0
  -28.6790   -1.8002   -4.4684 C   0  0  0  0  0  0  0  0  0  0  0  0
  -28.4730   -1.2450   -5.7216 C   0  0  0  0  0  0  0  0  0  0  0  0
  -28.2567    0.0744   -5.7890 N   0  0  0  0  0  0  0  0  0  0  0  0
  -28.1054    0.6083   -7.0041 C   0  0  0  0  0  0  0  0  0  0  0  0
  -28.1591   -0.0560   -8.1553 N   0  0  0  0  0  0  0  0  0  0  0  0
  -28.3231   -1.3943   -8.0561 C   0  0  0  0  0  0  0  0  0  0  0  0
  -28.5064   -2.0791   -6.8432 C   0  0  0  0  0  0  0  0  0  0  0  0
  -28.7174   -3.4762   -6.6589 C   0  0  0  0  0  0  0  0  0  0  0  0
  -28.8993   -4.0212   -5.3731 C   0  0  0  0  0  0  0  0  0  0  0  0
  -29.0794   -5.3675   -5.1808 O   0  0  0  0  0  0  0  0  0  0  0  0
  -28.6871   -6.1522   -6.3070 C   0  0  0  0  0  0  0  0  0  0  0  0
  -29.2707   -5.5576   -7.5679 C   0  0  0  0  0  0  0  0  0  0  0  0
  -28.7143   -4.2634   -7.7896 O   0  0  0  0  0  0  0  0  0  0  0  0
  -30.1202   -2.8033   -2.2263 C   0  0  0  0  0  0  0  0  0  0  0  0
  -29.0995   -3.4767   -2.9471 O   0  0  0  0  0  0  0  0  0  0  0  0
 39 40  1  0  0  0
 40 25  1  0  0  0
 25 26  1  0  0  0
 25 34  2  0  0  0
 26 27  2  0  0  0
 27 28  1  0  0  0
 27 32  1  0  0  0
 28 29  2  0  0  0
 29 30  1  0  0  0
 30 31  2  0  0  0
 31 24  1  0  0  0
 31 32  1  0  0  0
 24  1  1  0  0  0
  1  2  1  0  0  0
  1  6  2  0  0  0
  2  3  2  0  0  0
  3  4  1  0  0  0
  4  7  1  0  0  0
  4  5  2  0  0  0
  7  8  1  0  0  0
  7 11  1  0  0  0
  8  9  2  0  0  0
  8 10  1  0  0  0
 10 13  1  0  0  0
 10 12  1  0  0  0
 13 14  1  0  0  0
 13 19  2  0  0  0
 14 15  2  0  0  0
 15 16  1  0  0  0
 16 17  1  0  0  0
 16 18  2  0  0  0
 18 20  1  0  0  0
 18 19  1  0  0  0
 20 21  1  0  0  0
 20 22  1  0  0  0
 20 23  1  0  0  0
  5  6  1  0  0  0
 32 33  2  0  0  0
 33 34  1  0  0  0
 33 38  1  0  0  0
 34 35  1  0  0  0
 35 36  1  0  0  0
 36 37  1  0  0  0
 37 38  1  0  0  0
M  END
> <minimizedAffinity>
-9.74214

$$$$
