CHEMBL462023


 41 46  0  0  0  0  0  0  0  0999 V2000
  -14.0399   -1.6578  -12.7592 C   0  0  0  0  0  0  0  0  0  0  0  0
  -13.7649   -0.8812  -13.8782 C   0  0  0  0  0  0  0  0  0  0  0  0
  -14.8123   -0.2721  -14.6081 C   0  0  0  0  0  0  0  0  0  0  0  0
  -16.1363   -0.2806  -14.1710 C   0  0  0  0  0  0  0  0  0  0  0  0
  -16.3471   -0.7781  -12.8796 C   0  0  0  0  0  0  0  0  0  0  0  0
  -15.3113   -1.4664  -12.1966 C   0  0  0  0  0  0  0  0  0  0  0  0
  -15.5734   -1.9543  -10.9695 F   0  0  0  0  0  0  0  0  0  0  0  0
  -17.2351    0.2042  -14.9670 N   0  0  0  0  0  0  0  0  0  0  0  0
  -18.0169    1.3220  -14.6781 C   0  0  0  0  0  0  0  0  0  0  0  0
  -17.8311    2.0733  -13.7210 O   0  0  0  0  0  0  0  0  0  0  0  0
  -17.3401   -0.2254  -15.8821 H   0  0  0  0  0  0  0  0  0  0  0  0
  -19.1974    1.6774  -15.5945 C   0  0  0  0  0  0  0  0  0  0  0  0
  -19.8216    3.0164  -15.2781 C   0  0  0  0  0  0  0  0  0  0  0  0
  -20.9537    2.6251  -14.3515 C   0  0  0  0  0  0  0  0  0  0  0  0
  -21.4787    3.4314  -13.6110 O   0  0  0  0  0  0  0  0  0  0  0  0
  -21.2236    1.2666  -14.5449 N   0  0  0  0  0  0  0  0  0  0  0  0
  -20.3467    0.7021  -15.5401 C   0  0  0  0  0  0  0  0  0  0  0  0
  -22.2219    0.5069  -13.8887 C   0  0  0  0  0  0  0  0  0  0  0  0
  -22.1081    0.1560  -12.5347 C   0  0  0  0  0  0  0  0  0  0  0  0
  -23.0489   -0.6779  -11.9186 C   0  0  0  0  0  0  0  0  0  0  0  0
  -24.1301   -1.1661  -12.6418 C   0  0  0  0  0  0  0  0  0  0  0  0
  -24.2904   -0.7970  -13.9711 C   0  0  0  0  0  0  0  0  0  0  0  0
  -23.3583    0.0463  -14.5822 C   0  0  0  0  0  0  0  0  0  0  0  0
  -13.1629   -2.5668  -12.1861 O   0  0  0  0  0  0  0  0  0  0  0  0
  -14.2686   -6.5162  -14.3298 C   0  0  0  0  0  0  0  0  0  0  0  0
  -14.2658   -7.1518  -13.1160 C   0  0  0  0  0  0  0  0  0  0  0  0
  -14.2295   -6.1953  -12.0617 C   0  0  0  0  0  0  0  0  0  0  0  0
  -14.0898   -6.5021  -10.7503 N   0  0  0  0  0  0  0  0  0  0  0  0
  -13.7686   -5.4645   -9.9623 C   0  0  0  0  0  0  0  0  0  0  0  0
  -13.4660   -4.1789  -10.4177 C   0  0  0  0  0  0  0  0  0  0  0  0
  -13.5956   -3.8489  -11.7764 C   0  0  0  0  0  0  0  0  0  0  0  0
  -14.1407   -4.8851  -12.5619 C   0  0  0  0  0  0  0  0  0  0  0  0
  -14.8138   -4.9182  -14.1512 S   0  0  0  0  0  0  0  0  0  0  0  0
  -13.0710   -8.5309  -17.0528 N   0  0  0  0  0  0  0  0  0  0  0  0
  -13.6432   -7.4689  -17.6846 C   0  0  0  0  0  0  0  0  0  0  0  0
  -14.2196   -6.6505  -16.8293 N   0  0  0  0  0  0  0  0  0  0  0  0
  -13.9030   -7.1570  -15.6004 C   0  0  0  0  0  0  0  0  0  0  0  0
  -13.2639   -8.3633  -15.7178 C   0  0  0  0  0  0  0  0  0  0  0  0
  -12.6527  -10.9439  -17.0170 C   0  0  0  0  0  0  0  0  0  0  0  0
  -12.3182   -9.6121  -17.6613 C   0  0  0  0  0  0  0  0  0  0  0  0
  -12.4990   -9.5973  -19.1772 C   0  0  0  0  0  0  0  0  0  0  0  0
 39 40  1  0  0  0
 40 41  1  0  0  0
 40 34  1  0  0  0
 34 35  1  0  0  0
 34 38  1  0  0  0
 35 36  2  0  0  0
 36 37  1  0  0  0
 37 25  1  0  0  0
 37 38  2  0  0  0
 25 26  2  0  0  0
 25 33  1  0  0  0
 26 27  1  0  0  0
 27 28  1  0  0  0
 27 32  2  0  0  0
 28 29  2  0  0  0
 29 30  1  0  0  0
 30 31  2  0  0  0
 31 24  1  0  0  0
 31 32  1  0  0  0
 24  1  1  0  0  0
  1  2  1  0  0  0
  1  6  2  0  0  0
  2  3  2  0  0  0
  3  4  1  0  0  0
  4  8  1  0  0  0
  4  5  2  0  0  0
  8  9  1  0  0  0
  8 11  1  0  0  0
  9 10  2  0  0  0
  9 12  1  0  0  0
 12 13  1  0  0  0
 12 17  1  0  0  0
 13 14  1  0  0  0
 14 15  2  0  0  0
 14 16  1  0  0  0
 16 18  1  0  0  0
 16 17  1  0  0  0
 18 19  1  0  0  0
 18 23  2  0  0  0
 19 20  2  0  0  0
 20 21  1  0  0  0
 21 22  2  0  0  0
 22 23  1  0  0  0
  5  6  1  0  0  0
  6  7  1  0  0  0
 32 33  1  0  0  0
M  END
> <minimizedAffinity>
-9.78591

$$$$
