CHEMBL3944340


 37 41  0  0  0  0  0  0  0  0999 V2000
  -15.5706    2.1861  -15.9115 N   0  0  0  0  0  0  0  0  0  0  0  0
  -17.0264    2.1413  -15.7499 C   0  0  0  0  0  0  0  0  0  0  0  0
  -17.6651    3.3125  -16.1898 C   0  0  0  0  0  0  0  0  0  0  0  0
  -18.8876    3.6695  -15.7667 C   0  0  0  0  0  0  0  0  0  0  0  0
  -19.6115    2.8353  -14.9783 C   0  0  0  0  0  0  0  0  0  0  0  0
  -20.7020    3.3763  -14.4595 N   0  0  0  0  0  0  0  0  0  0  0  0
  -21.5709    2.6749  -13.7547 C   0  0  0  0  0  0  0  0  0  0  0  0
  -21.4606    1.2846  -13.7122 C   0  0  0  0  0  0  0  0  0  0  0  0
  -20.2388    0.7088  -14.1012 N   0  0  0  0  0  0  0  0  0  0  0  0
  -19.2387    1.5107  -14.6974 C   0  0  0  0  0  0  0  0  0  0  0  0
  -17.8613    1.1413  -15.0639 C   0  0  0  0  0  0  0  0  0  0  0  0
  -22.8363    0.6252  -13.5667 C   0  0  0  0  0  0  0  0  0  0  0  0
  -23.2939   -0.3820  -14.4498 C   0  0  0  0  0  0  0  0  0  0  0  0
  -24.3753   -0.9755  -13.9638 N   0  0  0  0  0  0  0  0  0  0  0  0
  -24.6683   -0.3978  -12.8239 N   0  0  0  0  0  0  0  0  0  0  0  0
  -25.7469   -0.9255  -11.9944 C   0  0  0  0  0  0  0  0  0  0  0  0
  -23.7939    0.6110  -12.5480 C   0  0  0  0  0  0  0  0  0  0  0  0
  -13.1313    5.0690  -15.9791 C   0  0  0  0  0  0  0  0  0  0  0  0
  -12.9113    5.1564  -17.3586 C   0  0  0  0  0  0  0  0  0  0  0  0
  -13.6070    4.3393  -18.2544 C   0  0  0  0  0  0  0  0  0  0  0  0
  -14.5474    3.4440  -17.7568 C   0  0  0  0  0  0  0  0  0  0  0  0
  -14.7864    3.3003  -16.3764 C   0  0  0  0  0  0  0  0  0  0  0  0
  -14.0798    4.1346  -15.4791 C   0  0  0  0  0  0  0  0  0  0  0  0
  -12.1100    7.2122  -15.3669 C   0  0  0  0  0  0  0  0  0  0  0  0
  -12.3701    5.8721  -15.1892 O   0  0  0  0  0  0  0  0  0  0  0  0
  -13.3695    4.3439  -19.5935 O   0  0  0  0  0  0  0  0  0  0  0  0
  -12.1343    4.4643  -20.1984 C   0  0  0  0  0  0  0  0  0  0  0  0
  -14.9142    0.8247  -15.8733 C   0  0  0  0  0  0  0  0  0  0  0  0
  -13.5777    0.6854  -15.0659 C   0  0  0  0  0  0  0  0  0  0  0  0
  -13.6696   -0.1898  -13.8519 N   0  0  0  0  0  0  0  0  0  0  0  0
  -12.4806   -1.0660  -13.7903 C   0  0  0  0  0  0  0  0  0  0  0  0
  -12.8337   -2.2819  -14.6405 C   0  0  0  0  0  0  0  0  0  0  0  0
  -14.2111   -2.5717  -14.1158 C   0  0  0  0  0  0  0  0  0  0  0  0
  -14.7996   -1.1644  -13.8802 C   0  0  0  0  0  0  0  0  0  0  0  0
  -15.5574   -1.1189  -12.5375 C   0  0  0  0  0  0  0  0  0  0  0  0
  -15.8387    0.2014  -12.1606 O   0  0  0  0  0  0  0  0  0  0  0  0
  -14.9856    0.5863  -11.8327 H   0  0  0  0  0  0  0  0  0  0  0  0
 24 25  1  0  0  0
 25 18  1  0  0  0
 18 19  1  0  0  0
 18 23  2  0  0  0
 19 20  2  0  0  0
 20 26  1  0  0  0
 20 21  1  0  0  0
 26 27  1  0  0  0
 21 22  2  0  0  0
 22  1  1  0  0  0
 22 23  1  0  0  0
  1 28  1  0  0  0
  1  2  1  0  0  0
 28 29  1  0  0  0
 29 30  1  0  0  0
 30 31  1  0  0  0
 30 34  1  0  0  0
 31 32  1  0  0  0
 32 33  1  0  0  0
 33 34  1  0  0  0
 34 35  1  0  0  0
 35 36  1  0  0  0
 36 37  1  0  0  0
  2  3  1  0  0  0
  2 11  2  0  0  0
  3  4  2  0  0  0
  4  5  1  0  0  0
  5  6  1  0  0  0
  5 10  2  0  0  0
  6  7  2  0  0  0
  7  8  1  0  0  0
  8 12  1  0  0  0
  8  9  2  0  0  0
 12 13  1  0  0  0
 12 17  2  0  0  0
 13 14  2  0  0  0
 14 15  1  0  0  0
 15 16  1  0  0  0
 15 17  1  0  0  0
  9 10  1  0  0  0
 10 11  1  0  0  0
M  END
> <minimizedAffinity>
-7.57337

$$$$
