CHEMBL3986123


 37 40  0  0  0  0  0  0  0  0999 V2000
  -28.5806   -5.2988   -5.6783 C   0  0  0  0  0  0  0  0  0  0  0  0
  -28.2820   -3.9913   -5.2622 C   0  0  0  0  0  0  0  0  0  0  0  0
  -28.0918   -2.9552   -6.1637 C   0  0  0  0  0  0  0  0  0  0  0  0
  -27.7581   -1.7392   -5.7211 N   0  0  0  0  0  0  0  0  0  0  0  0
  -27.5661   -0.7977   -6.6568 C   0  0  0  0  0  0  0  0  0  0  0  0
  -27.6983   -0.9491   -7.9750 N   0  0  0  0  0  0  0  0  0  0  0  0
  -28.0645   -2.1658   -8.4066 C   0  0  0  0  0  0  0  0  0  0  0  0
  -28.2459   -3.2331   -7.5223 C   0  0  0  0  0  0  0  0  0  0  0  0
  -28.5559   -4.5318   -7.9549 C   0  0  0  0  0  0  0  0  0  0  0  0
  -28.7285   -5.5728   -7.0485 C   0  0  0  0  0  0  0  0  0  0  0  0
  -28.2934   -2.3875   -9.7938 N   0  0  0  0  0  0  0  0  0  0  0  0
  -29.2540   -2.1359  -10.0082 H   0  0  0  0  0  0  0  0  0  0  0  0
  -27.4025   -2.0386  -10.8243 C   0  0  0  0  0  0  0  0  0  0  0  0
  -27.8748   -1.7792  -12.1157 C   0  0  0  0  0  0  0  0  0  0  0  0
  -26.9891   -1.5098  -13.1565 C   0  0  0  0  0  0  0  0  0  0  0  0
  -25.6153   -1.4898  -12.9137 C   0  0  0  0  0  0  0  0  0  0  0  0
  -24.5668   -1.2196  -14.2584 Cl  0  0  0  0  0  0  0  0  0  0  0  0
  -25.1349   -1.7010  -11.6158 C   0  0  0  0  0  0  0  0  0  0  0  0
  -23.4487   -1.6808  -11.2372 Cl  0  0  0  0  0  0  0  0  0  0  0  0
  -26.0291   -1.9585  -10.5729 C   0  0  0  0  0  0  0  0  0  0  0  0
  -29.0767   -6.8257   -7.4777 O   0  0  0  0  0  0  0  0  0  0  0  0
  -30.4710   -7.1310   -7.5482 C   0  0  0  0  0  0  0  0  0  0  0  0
  -28.6549   -6.1838   -4.6258 O   0  0  0  0  0  0  0  0  0  0  0  0
  -27.9924   -7.4258   -4.8401 C   0  0  0  0  0  0  0  0  0  0  0  0
  -25.5365   -9.7478   -4.7325 C   0  0  0  0  0  0  0  0  0  0  0  0
  -24.9658   -9.0634   -3.8770 O   0  0  0  0  0  0  0  0  0  0  0  0
  -26.8492  -10.1598   -4.5423 N   0  0  0  0  0  0  0  0  0  0  0  0
  -27.6762  -10.9580   -5.4479 C   0  0  0  0  0  0  0  0  0  0  0  0
  -28.8022  -10.1065   -6.0533 C   0  0  0  0  0  0  0  0  0  0  0  0
  -29.5385   -9.3784   -5.0577 O   0  0  0  0  0  0  0  0  0  0  0  0
  -28.7087   -8.6023   -4.1614 C   0  0  0  0  0  0  0  0  0  0  0  0
  -27.6544   -9.5135   -3.4941 C   0  0  0  0  0  0  0  0  0  0  0  0
  -24.8394  -10.0202   -6.0820 C   0  0  0  0  0  0  0  0  0  0  0  0
  -24.9612  -11.5066   -6.4377 C   0  0  0  0  0  0  0  0  0  0  0  0
  -23.3638   -9.6016   -5.9399 C   0  0  0  0  0  0  0  0  0  0  0  0
  -21.3292  -10.5192   -7.0824 C   0  0  0  0  0  0  0  0  0  0  0  0
  -22.3283  -10.7191   -5.9448 C   0  0  0  0  0  0  0  0  0  0  0  0
 36 37  1  0  0  0
 37 35  1  0  0  0
 35 33  1  0  0  0
 33 34  1  0  0  0
 33 25  1  0  0  0
 25 26  2  0  0  0
 25 27  1  0  0  0
 27 28  1  0  0  0
 27 32  1  0  0  0
 28 29  1  0  0  0
 29 30  1  0  0  0
 30 31  1  0  0  0
 31 24  1  0  0  0
 31 32  1  0  0  0
 24 23  1  0  0  0
 23  1  1  0  0  0
  1  2  1  0  0  0
  1 10  2  0  0  0
  2  3  2  0  0  0
  3  4  1  0  0  0
  3  8  1  0  0  0
  4  5  2  0  0  0
  5  6  1  0  0  0
  6  7  2  0  0  0
  7 11  1  0  0  0
  7  8  1  0  0  0
 11 13  1  0  0  0
 11 12  1  0  0  0
 13 14  1  0  0  0
 13 20  2  0  0  0
 14 15  2  0  0  0
 15 16  1  0  0  0
 16 17  1  0  0  0
 16 18  2  0  0  0
 18 19  1  0  0  0
 18 20  1  0  0  0
  8  9  2  0  0  0
  9 10  1  0  0  0
 10 21  1  0  0  0
 21 22  1  0  0  0
M  END
> <minimizedAffinity>
-8.84924

$$$$
