CHEMBL256205


 33 36  0  0  0  0  0  0  0  0999 V2000
  -28.7012   -2.6884   -6.7514 C   0  0  0  0  0  0  0  0  0  0  0  0
  -27.9564   -1.5296   -7.0208 C   0  0  0  0  0  0  0  0  0  0  0  0
  -27.5749   -1.1846   -8.3191 C   0  0  0  0  0  0  0  0  0  0  0  0
  -27.8774   -2.0147   -9.3958 C   0  0  0  0  0  0  0  0  0  0  0  0
  -28.6671   -3.1395   -9.1659 C   0  0  0  0  0  0  0  0  0  0  0  0
  -29.0948   -3.4525   -7.8620 C   0  0  0  0  0  0  0  0  0  0  0  0
  -28.2022   -6.0606   -6.4551 N   0  0  0  0  0  0  0  0  0  0  0  0
  -28.6431   -5.6834   -5.2422 C   0  0  0  0  0  0  0  0  0  0  0  0
  -28.7874   -6.5812   -4.2704 N   0  0  0  0  0  0  0  0  0  0  0  0
  -29.1786   -5.8464   -3.2215 N   0  0  0  0  0  0  0  0  0  0  0  0
  -29.2889   -4.5150   -3.4867 C   0  0  0  0  0  0  0  0  0  0  0  0
  -29.6293   -3.5792   -2.5828 N   0  0  0  0  0  0  0  0  0  0  0  0
  -29.6681   -2.3419   -3.1062 C   0  0  0  0  0  0  0  0  0  0  0  0
  -29.4088   -2.0278   -4.4315 C   0  0  0  0  0  0  0  0  0  0  0  0
  -29.0437   -3.0336   -5.3580 C   0  0  0  0  0  0  0  0  0  0  0  0
  -28.9756   -4.3528   -4.8345 C   0  0  0  0  0  0  0  0  0  0  0  0
  -27.8521   -7.0120   -6.5010 H   0  0  0  0  0  0  0  0  0  0  0  0
  -27.6307   -5.4125   -6.9871 H   0  0  0  0  0  0  0  0  0  0  0  0
  -29.3431   -6.2976   -2.3308 H   0  0  0  0  0  0  0  0  0  0  0  0
  -27.4255   -1.7388  -10.7065 N   0  0  0  0  0  0  0  0  0  0  0  0
  -26.1135   -1.4307  -11.0214 C   0  0  0  0  0  0  0  0  0  0  0  0
  -25.1673   -1.5197  -10.2424 O   0  0  0  0  0  0  0  0  0  0  0  0
  -25.9884   -0.9768  -12.3219 N   0  0  0  0  0  0  0  0  0  0  0  0
  -27.9944   -2.0698  -11.4727 H   0  0  0  0  0  0  0  0  0  0  0  0
  -26.7796   -0.4433  -12.6531 H   0  0  0  0  0  0  0  0  0  0  0  0
  -24.7240   -0.6678  -12.8754 C   0  0  0  0  0  0  0  0  0  0  0  0
  -23.8135   -1.6752  -13.2272 C   0  0  0  0  0  0  0  0  0  0  0  0
  -22.5633   -1.3507  -13.7525 C   0  0  0  0  0  0  0  0  0  0  0  0
  -22.2181   -0.0146  -13.9153 C   0  0  0  0  0  0  0  0  0  0  0  0
  -21.0079    0.2805  -14.4130 F   0  0  0  0  0  0  0  0  0  0  0  0
  -23.1137    0.9942  -13.5672 C   0  0  0  0  0  0  0  0  0  0  0  0
  -22.6685    2.6507  -13.7246 Cl  0  0  0  0  0  0  0  0  0  0  0  0
  -24.3783    0.6721  -13.0663 C   0  0  0  0  0  0  0  0  0  0  0  0
  7  8  1  0  0  0
  7 17  1  0  0  0
  7 18  1  0  0  0
  8  9  2  0  0  0
  8 16  1  0  0  0
  9 10  1  0  0  0
 10 11  1  0  0  0
 10 19  1  0  0  0
 11 12  1  0  0  0
 11 16  2  0  0  0
 12 13  2  0  0  0
 13 14  1  0  0  0
 14 15  2  0  0  0
 15  1  1  0  0  0
 15 16  1  0  0  0
  1  2  1  0  0  0
  1  6  2  0  0  0
  2  3  2  0  0  0
  3  4  1  0  0  0
  4 20  1  0  0  0
  4  5  2  0  0  0
 20 21  1  0  0  0
 20 24  1  0  0  0
 21 22  2  0  0  0
 21 23  1  0  0  0
 23 26  1  0  0  0
 23 25  1  0  0  0
 26 27  1  0  0  0
 26 33  2  0  0  0
 27 28  2  0  0  0
 28 29  1  0  0  0
 29 30  1  0  0  0
 29 31  2  0  0  0
 31 32  1  0  0  0
 31 33  1  0  0  0
  5  6  1  0  0  0
M  END
> <minimizedAffinity>
-9.41952

$$$$
