CHEMBL2086742


 34 38  0  0  0  0  0  0  0  0999 V2000
  -27.9635   -2.0847   -7.9096 C   0  0  0  0  0  0  0  0  0  0  0  0
  -28.2752   -3.3227   -7.4536 C   0  0  0  0  0  0  0  0  0  0  0  0
  -27.9731   -4.6087   -8.2248 C   0  0  0  0  0  0  0  0  0  0  0  0
  -27.5738   -4.7485   -9.3622 O   0  0  0  0  0  0  0  0  0  0  0  0
  -28.3083   -5.6499   -7.3746 N   0  0  0  0  0  0  0  0  0  0  0  0
  -28.8433   -5.1741   -6.1830 C   0  0  0  0  0  0  0  0  0  0  0  0
  -29.3097   -5.9647   -5.1517 C   0  0  0  0  0  0  0  0  0  0  0  0
  -29.8420   -5.3099   -4.0388 C   0  0  0  0  0  0  0  0  0  0  0  0
  -29.9071   -3.8987   -3.9833 C   0  0  0  0  0  0  0  0  0  0  0  0
  -29.4404   -3.1257   -5.0678 C   0  0  0  0  0  0  0  0  0  0  0  0
  -28.8798   -3.7750   -6.1661 C   0  0  0  0  0  0  0  0  0  0  0  0
  -28.2090   -6.6099   -7.6379 H   0  0  0  0  0  0  0  0  0  0  0  0
  -25.0013   -1.3135  -13.0253 C   0  0  0  0  0  0  0  0  0  0  0  0
  -26.2432   -1.6140  -13.5925 C   0  0  0  0  0  0  0  0  0  0  0  0
  -27.3668   -1.8754  -12.7958 C   0  0  0  0  0  0  0  0  0  0  0  0
  -27.1871   -1.8189  -11.4095 C   0  0  0  0  0  0  0  0  0  0  0  0
  -28.0321   -2.0497  -10.3498 N   0  0  0  0  0  0  0  0  0  0  0  0
  -27.3084   -1.9208   -9.1801 C   0  0  0  0  0  0  0  0  0  0  0  0
  -26.0720   -1.5510   -9.4441 N   0  0  0  0  0  0  0  0  0  0  0  0
  -25.9669   -1.5180  -10.8181 C   0  0  0  0  0  0  0  0  0  0  0  0
  -24.8561   -1.2540  -11.6310 C   0  0  0  0  0  0  0  0  0  0  0  0
  -28.9924   -2.3324  -10.4256 H   0  0  0  0  0  0  0  0  0  0  0  0
  -22.8056   -0.4226  -13.0462 C   0  0  0  0  0  0  0  0  0  0  0  0
  -23.8514   -1.0944  -13.7409 O   0  0  0  0  0  0  0  0  0  0  0  0
  -28.1564   -0.8596   -7.0828 C   0  0  0  0  0  0  0  0  0  0  0  0
  -29.0863    0.1258   -7.4525 C   0  0  0  0  0  0  0  0  0  0  0  0
  -29.3473    1.2130   -6.6072 C   0  0  0  0  0  0  0  0  0  0  0  0
  -28.7142    1.3037   -5.3715 C   0  0  0  0  0  0  0  0  0  0  0  0
  -27.7983    0.3219   -4.9878 C   0  0  0  0  0  0  0  0  0  0  0  0
  -27.5042   -0.7408   -5.8487 C   0  0  0  0  0  0  0  0  0  0  0  0
  -30.5258   -3.3052   -2.7571 C   0  0  0  0  0  0  0  0  0  0  0  0
  -31.7126   -3.4555   -2.5023 O   0  0  0  0  0  0  0  0  0  0  0  0
  -29.6963   -2.6477   -1.9266 O   0  0  0  0  0  0  0  0  0  0  0  0
  -28.7521   -2.6032   -2.1567 H   0  0  0  0  0  0  0  0  0  0  0  0
 23 24  1  0  0  0
 24 13  1  0  0  0
 13 14  1  0  0  0
 13 21  2  0  0  0
 14 15  2  0  0  0
 15 16  1  0  0  0
 16 17  1  0  0  0
 16 20  2  0  0  0
 17 18  1  0  0  0
 17 22  1  0  0  0
 18  1  1  0  0  0
 18 19  2  0  0  0
  1  2  2  0  0  0
  1 25  1  0  0  0
  2  3  1  0  0  0
  2 11  1  0  0  0
  3  4  2  0  0  0
  3  5  1  0  0  0
  5  6  1  0  0  0
  5 12  1  0  0  0
  6  7  1  0  0  0
  6 11  2  0  0  0
  7  8  2  0  0  0
  8  9  1  0  0  0
  9 31  1  0  0  0
  9 10  2  0  0  0
 31 32  2  0  0  0
 31 33  1  0  0  0
 33 34  1  0  0  0
 10 11  1  0  0  0
 25 26  1  0  0  0
 25 30  2  0  0  0
 26 27  2  0  0  0
 27 28  1  0  0  0
 28 29  2  0  0  0
 29 30  1  0  0  0
 19 20  1  0  0  0
 20 21  1  0  0  0
M  END
> <minimizedAffinity>
-9.33644

$$$$
