CHEMBL3922174


 31 34  0  0  0  0  0  0  0  0999 V2000
  -15.5891   -0.8545  -12.6045 C   0  0  0  0  0  0  0  0  0  0  0  0
  -15.4976    0.2800  -13.6106 C   0  0  0  0  0  0  0  0  0  0  0  0
  -16.6644    0.4943  -14.2999 N   0  0  0  0  0  0  0  0  0  0  0  0
  -16.7147    1.4759  -15.2162 C   0  0  0  0  0  0  0  0  0  0  0  0
  -15.6673    2.2592  -15.4921 N   0  0  0  0  0  0  0  0  0  0  0  0
  -14.5252    2.0201  -14.8280 C   0  0  0  0  0  0  0  0  0  0  0  0
  -14.3671    1.0344  -13.8783 C   0  0  0  0  0  0  0  0  0  0  0  0
  -12.8103    0.8757  -13.1824 Cl  0  0  0  0  0  0  0  0  0  0  0  0
  -17.9334    1.6932  -15.8581 N   0  0  0  0  0  0  0  0  0  0  0  0
  -17.9088    1.3035  -16.7900 H   0  0  0  0  0  0  0  0  0  0  0  0
  -19.1857    2.0165  -15.3166 C   0  0  0  0  0  0  0  0  0  0  0  0
  -20.1092    1.0018  -15.0511 C   0  0  0  0  0  0  0  0  0  0  0  0
  -21.3240    1.2932  -14.4249 C   0  0  0  0  0  0  0  0  0  0  0  0
  -21.5968    2.6061  -14.0875 C   0  0  0  0  0  0  0  0  0  0  0  0
  -20.7627    3.6268  -14.3548 N   0  0  0  0  0  0  0  0  0  0  0  0
  -19.5894    3.3069  -14.9622 C   0  0  0  0  0  0  0  0  0  0  0  0
  -14.5701   -1.9989  -12.7110 C   0  0  0  0  0  0  0  0  0  0  0  0
  -14.7503   -4.3307  -11.6214 C   0  0  0  0  0  0  0  0  0  0  0  0
  -15.2938   -5.6309  -11.7246 C   0  0  0  0  0  0  0  0  0  0  0  0
  -16.3056   -5.9463  -12.6321 C   0  0  0  0  0  0  0  0  0  0  0  0
  -16.8173   -4.9600  -13.4612 C   0  0  0  0  0  0  0  0  0  0  0  0
  -16.2562   -3.6875  -13.4408 C   0  0  0  0  0  0  0  0  0  0  0  0
  -15.1987   -3.3713  -12.5648 C   0  0  0  0  0  0  0  0  0  0  0  0
  -13.7580   -4.0432  -10.4810 C   0  0  0  0  0  0  0  0  0  0  0  0
  -14.2706   -3.3698   -9.2027 C   0  0  0  0  0  0  0  0  0  0  0  0
  -13.9711   -4.8274   -9.1740 C   0  0  0  0  0  0  0  0  0  0  0  0
  -11.7679   -4.6736  -11.7254 N   0  0  0  0  0  0  0  0  0  0  0  0
  -12.3391   -3.7618  -10.8827 C   0  0  0  0  0  0  0  0  0  0  0  0
  -11.7338   -2.7838  -10.4630 O   0  0  0  0  0  0  0  0  0  0  0  0
  -10.8095   -4.5273  -12.0148 H   0  0  0  0  0  0  0  0  0  0  0  0
  -12.2779   -5.4615  -12.0900 H   0  0  0  0  0  0  0  0  0  0  0  0
 27 28  1  0  0  0
 27 30  1  0  0  0
 27 31  1  0  0  0
 28 29  2  0  0  0
 28 24  1  0  0  0
 24 18  1  0  0  0
 24 25  1  0  0  0
 24 26  1  0  0  0
 18 19  1  0  0  0
 18 23  2  0  0  0
 19 20  2  0  0  0
 20 21  1  0  0  0
 21 22  2  0  0  0
 22 23  1  0  0  0
 23 17  1  0  0  0
 17  1  1  0  0  0
  1  2  1  0  0  0
  2  3  1  0  0  0
  2  7  2  0  0  0
  3  4  2  0  0  0
  4  9  1  0  0  0
  4  5  1  0  0  0
  9 11  1  0  0  0
  9 10  1  0  0  0
 11 12  1  0  0  0
 11 16  2  0  0  0
 12 13  2  0  0  0
 13 14  1  0  0  0
 14 15  2  0  0  0
 15 16  1  0  0  0
  5  6  2  0  0  0
  6  7  1  0  0  0
  7  8  1  0  0  0
 25 26  1  0  0  0
M  END
> <minimizedAffinity>
-8.25591

$$$$
