CHEMBL1098158


 40 44  0  0  0  0  0  0  0  0999 V2000
  -23.8142   -0.7660  -13.2602 C   0  0  0  0  0  0  0  0  0  0  0  0
  -25.0979   -1.1680  -13.6257 C   0  0  0  0  0  0  0  0  0  0  0  0
  -25.9468   -1.7317  -12.6769 C   0  0  0  0  0  0  0  0  0  0  0  0
  -25.5578   -1.8310  -11.3392 C   0  0  0  0  0  0  0  0  0  0  0  0
  -24.3463   -1.2639  -10.9397 C   0  0  0  0  0  0  0  0  0  0  0  0
  -23.4766   -0.7549  -11.9064 C   0  0  0  0  0  0  0  0  0  0  0  0
  -22.2846   -0.2814  -11.5129 F   0  0  0  0  0  0  0  0  0  0  0  0
  -26.3658   -2.4732  -10.3766 N   0  0  0  0  0  0  0  0  0  0  0  0
  -27.4423   -1.8726   -9.7397 C   0  0  0  0  0  0  0  0  0  0  0  0
  -27.9357   -0.7968  -10.0473 O   0  0  0  0  0  0  0  0  0  0  0  0
  -26.2003   -3.4557  -10.2162 H   0  0  0  0  0  0  0  0  0  0  0  0
  -27.9921   -2.6457   -8.6423 C   0  0  0  0  0  0  0  0  0  0  0  0
  -28.4548   -3.9664   -8.6390 C   0  0  0  0  0  0  0  0  0  0  0  0
  -28.8774   -4.3518   -7.4416 N   0  0  0  0  0  0  0  0  0  0  0  0
  -28.7328   -3.2612   -6.6421 N   0  0  0  0  0  0  0  0  0  0  0  0
  -28.1901   -2.1965   -7.3366 C   0  0  0  0  0  0  0  0  0  0  0  0
  -29.0090   -3.4626   -5.1979 C   0  0  0  0  0  0  0  0  0  0  0  0
  -27.6671   -3.6918   -4.4777 C   0  0  0  0  0  0  0  0  0  0  0  0
  -29.7730   -2.3119   -4.5165 C   0  0  0  0  0  0  0  0  0  0  0  0
  -29.8939   -4.7212   -4.9807 C   0  0  0  0  0  0  0  0  0  0  0  0
  -27.8625   -0.8812   -6.7402 C   0  0  0  0  0  0  0  0  0  0  0  0
  -27.1219   -0.0759   -7.5370 F   0  0  0  0  0  0  0  0  0  0  0  0
  -28.9756   -0.1815   -6.4116 F   0  0  0  0  0  0  0  0  0  0  0  0
  -27.1275   -1.0319   -5.6080 F   0  0  0  0  0  0  0  0  0  0  0  0
  -22.8499   -0.3690  -14.1587 O   0  0  0  0  0  0  0  0  0  0  0  0
  -18.7018    1.4950  -14.9128 C   0  0  0  0  0  0  0  0  0  0  0  0
  -19.2713    2.7021  -14.5810 C   0  0  0  0  0  0  0  0  0  0  0  0
  -20.6691    2.5872  -14.3275 C   0  0  0  0  0  0  0  0  0  0  0  0
  -21.5009    3.6190  -14.0184 N   0  0  0  0  0  0  0  0  0  0  0  0
  -22.7935    3.2957  -13.8376 C   0  0  0  0  0  0  0  0  0  0  0  0
  -23.3142    2.0184  -13.9123 C   0  0  0  0  0  0  0  0  0  0  0  0
  -22.4466    0.9513  -14.1487 C   0  0  0  0  0  0  0  0  0  0  0  0
  -21.1079    1.2659  -14.4178 C   0  0  0  0  0  0  0  0  0  0  0  0
  -19.8276    0.2178  -14.8640 S   0  0  0  0  0  0  0  0  0  0  0  0
  -14.0290   -0.1808  -15.1360 C   0  0  0  0  0  0  0  0  0  0  0  0
  -15.2252    0.5895  -15.3636 N   0  0  0  0  0  0  0  0  0  0  0  0
  -15.4231    1.5243  -16.3350 C   0  0  0  0  0  0  0  0  0  0  0  0
  -16.6586    1.9723  -16.3261 N   0  0  0  0  0  0  0  0  0  0  0  0
  -17.2707    1.3177  -15.2829 C   0  0  0  0  0  0  0  0  0  0  0  0
  -16.3849    0.4698  -14.6590 C   0  0  0  0  0  0  0  0  0  0  0  0
 35 36  1  0  0  0
 36 37  1  0  0  0
 36 40  1  0  0  0
 37 38  2  0  0  0
 38 39  1  0  0  0
 39 26  1  0  0  0
 39 40  2  0  0  0
 26 27  2  0  0  0
 26 34  1  0  0  0
 27 28  1  0  0  0
 28 29  1  0  0  0
 28 33  2  0  0  0
 29 30  2  0  0  0
 30 31  1  0  0  0
 31 32  2  0  0  0
 32 25  1  0  0  0
 32 33  1  0  0  0
 25  1  1  0  0  0
  1  2  1  0  0  0
  1  6  2  0  0  0
  2  3  2  0  0  0
  3  4  1  0  0  0
  4  8  1  0  0  0
  4  5  2  0  0  0
  8  9  1  0  0  0
  8 11  1  0  0  0
  9 10  2  0  0  0
  9 12  1  0  0  0
 12 13  1  0  0  0
 12 16  2  0  0  0
 13 14  2  0  0  0
 14 15  1  0  0  0
 15 17  1  0  0  0
 15 16  1  0  0  0
 17 18  1  0  0  0
 17 19  1  0  0  0
 17 20  1  0  0  0
 16 21  1  0  0  0
 21 22  1  0  0  0
 21 23  1  0  0  0
 21 24  1  0  0  0
  5  6  1  0  0  0
  6  7  1  0  0  0
 33 34  1  0  0  0
M  END
> <minimizedAffinity>
-9.78782

$$$$
