CHEMBL2180603


 21 23  0  0  0  0  0  0  0  0999 V2000
  -28.2619   -1.2060   -5.8477 C   0  0  0  0  0  0  0  0  0  0  0  0
  -29.0483   -1.6236   -4.7678 C   0  0  0  0  0  0  0  0  0  0  0  0
  -29.6510   -2.8710   -4.7196 C   0  0  0  0  0  0  0  0  0  0  0  0
  -30.4446   -3.1326   -3.6763 N   0  0  0  0  0  0  0  0  0  0  0  0
  -31.0701   -4.3116   -3.6673 C   0  0  0  0  0  0  0  0  0  0  0  0
  -30.9612   -5.2612   -4.5933 N   0  0  0  0  0  0  0  0  0  0  0  0
  -30.1377   -4.9929   -5.6348 C   0  0  0  0  0  0  0  0  0  0  0  0
  -29.4464   -3.7713   -5.7711 C   0  0  0  0  0  0  0  0  0  0  0  0
  -28.6075   -3.3732   -6.8461 C   0  0  0  0  0  0  0  0  0  0  0  0
  -27.9938   -2.1153   -6.8752 C   0  0  0  0  0  0  0  0  0  0  0  0
  -28.6777    1.0446   -6.4475 C   0  0  0  0  0  0  0  0  0  0  0  0
  -27.7647    0.0681   -5.9494 O   0  0  0  0  0  0  0  0  0  0  0  0
  -27.2339   -1.9004   -7.9922 O   0  0  0  0  0  0  0  0  0  0  0  0
  -27.9112   -1.9407   -9.2438 C   0  0  0  0  0  0  0  0  0  0  0  0
  -30.2030   -6.2544   -6.8950 S   0  0  0  0  0  0  0  0  0  0  0  0
  -29.4746   -7.6161   -6.0853 C   0  0  0  0  0  0  0  0  0  0  0  0
  -29.8893   -8.8632   -6.1740 N   0  0  0  0  0  0  0  0  0  0  0  0
  -29.2264   -9.6992   -5.2886 N   0  0  0  0  0  0  0  0  0  0  0  0
  -28.3272   -9.0483   -4.5770 C   0  0  0  0  0  0  0  0  0  0  0  0
  -27.5159   -9.6395   -3.4801 C   0  0  0  0  0  0  0  0  0  0  0  0
  -28.1685   -7.3951   -4.9878 S   0  0  0  0  0  0  0  0  0  0  0  0
 11 12  1  0  0  0
 12  1  1  0  0  0
  1  2  1  0  0  0
  1 10  2  0  0  0
  2  3  2  0  0  0
  3  4  1  0  0  0
  3  8  1  0  0  0
  4  5  2  0  0  0
  5  6  1  0  0  0
  6  7  2  0  0  0
  7 15  1  0  0  0
  7  8  1  0  0  0
 15 16  1  0  0  0
 16 17  2  0  0  0
 16 21  1  0  0  0
 17 18  1  0  0  0
 18 19  2  0  0  0
 19 20  1  0  0  0
 19 21  1  0  0  0
  8  9  2  0  0  0
  9 10  1  0  0  0
 10 13  1  0  0  0
 13 14  1  0  0  0
M  END
> <minimizedAffinity>
-6.81577

$$$$
