CHEMBL3694706


 40 43  0  0  0  0  0  0  0  0999 V2000
  -28.9584   -5.0304   -5.9168 C   0  0  0  0  0  0  0  0  0  0  0  0
  -29.2177   -5.6212   -7.2338 C   0  0  0  0  0  0  0  0  0  0  0  0
  -29.2071   -6.9556   -7.3848 C   0  0  0  0  0  0  0  0  0  0  0  0
  -28.9134   -7.7771   -6.2935 N   0  0  0  0  0  0  0  0  0  0  0  0
  -28.7822   -9.1564   -6.1891 C   0  0  0  0  0  0  0  0  0  0  0  0
  -28.5634   -9.3676   -4.8331 C   0  0  0  0  0  0  0  0  0  0  0  0
  -28.5020   -8.2022   -4.1273 N   0  0  0  0  0  0  0  0  0  0  0  0
  -28.6955   -7.2605   -5.0201 C   0  0  0  0  0  0  0  0  0  0  0  0
  -28.7229   -5.8513   -4.8644 C   0  0  0  0  0  0  0  0  0  0  0  0
  -27.6549   -0.6551   -7.2162 N   0  0  0  0  0  0  0  0  0  0  0  0
  -28.3390   -1.4431   -6.2849 C   0  0  0  0  0  0  0  0  0  0  0  0
  -28.3269   -2.7647   -6.5488 N   0  0  0  0  0  0  0  0  0  0  0  0
  -28.9559   -3.5684   -5.6705 C   0  0  0  0  0  0  0  0  0  0  0  0
  -29.5883   -3.1426   -4.5698 N   0  0  0  0  0  0  0  0  0  0  0  0
  -29.5658   -1.8239   -4.3426 C   0  0  0  0  0  0  0  0  0  0  0  0
  -28.9456   -0.8969   -5.1558 C   0  0  0  0  0  0  0  0  0  0  0  0
  -27.3577   -1.2665   -7.9729 H   0  0  0  0  0  0  0  0  0  0  0  0
  -28.2344    0.1089   -7.5449 H   0  0  0  0  0  0  0  0  0  0  0  0
  -28.9108    0.4548   -4.9143 O   0  0  0  0  0  0  0  0  0  0  0  0
  -30.1906    1.1009   -5.0548 C   0  0  0  0  0  0  0  0  0  0  0  0
  -30.4033    1.6278   -6.4669 C   0  0  0  0  0  0  0  0  0  0  0  0
  -29.1616    1.9751   -7.0666 O   0  0  0  0  0  0  0  0  0  0  0  0
  -28.7545    2.6422   -6.4852 H   0  0  0  0  0  0  0  0  0  0  0  0
  -28.9048  -10.1472   -7.2635 C   0  0  0  0  0  0  0  0  0  0  0  0
  -29.1286  -11.4853   -6.9133 C   0  0  0  0  0  0  0  0  0  0  0  0
  -29.2247  -12.4657   -7.8924 C   0  0  0  0  0  0  0  0  0  0  0  0
  -29.1386  -12.1166   -9.2380 C   0  0  0  0  0  0  0  0  0  0  0  0
  -28.9429  -10.7907   -9.6265 C   0  0  0  0  0  0  0  0  0  0  0  0
  -28.7784   -9.8193   -8.6275 C   0  0  0  0  0  0  0  0  0  0  0  0
  -28.9092  -10.3764  -10.9803 N   0  0  0  0  0  0  0  0  0  0  0  0
  -27.8120   -9.8871  -11.6503 C   0  0  0  0  0  0  0  0  0  0  0  0
  -26.6853   -9.7280  -11.2056 O   0  0  0  0  0  0  0  0  0  0  0  0
  -28.1006   -9.5155  -12.9440 N   0  0  0  0  0  0  0  0  0  0  0  0
  -29.7659  -10.4577  -11.5062 H   0  0  0  0  0  0  0  0  0  0  0  0
  -28.8020  -10.0579  -13.4275 H   0  0  0  0  0  0  0  0  0  0  0  0
  -27.0068   -8.9632  -13.7561 C   0  0  0  0  0  0  0  0  0  0  0  0
  -26.9893   -9.3686  -15.2380 C   0  0  0  0  0  0  0  0  0  0  0  0
  -25.8439  -10.0037  -15.5784 F   0  0  0  0  0  0  0  0  0  0  0  0
  -28.0037  -10.2360  -15.4868 F   0  0  0  0  0  0  0  0  0  0  0  0
  -27.1522   -8.3165  -16.0657 F   0  0  0  0  0  0  0  0  0  0  0  0
 10 11  1  0  0  0
 10 17  1  0  0  0
 10 18  1  0  0  0
 11 12  1  0  0  0
 11 16  2  0  0  0
 12 13  2  0  0  0
 13  1  1  0  0  0
 13 14  1  0  0  0
  1  2  1  0  0  0
  1  9  2  0  0  0
  2  3  2  0  0  0
  3  4  1  0  0  0
  4  5  1  0  0  0
  4  8  1  0  0  0
  5 24  1  0  0  0
  5  6  2  0  0  0
 24 25  1  0  0  0
 24 29  2  0  0  0
 25 26  2  0  0  0
 26 27  1  0  0  0
 27 28  2  0  0  0
 28 30  1  0  0  0
 28 29  1  0  0  0
 30 31  1  0  0  0
 30 34  1  0  0  0
 31 32  2  0  0  0
 31 33  1  0  0  0
 33 36  1  0  0  0
 33 35  1  0  0  0
 36 37  1  0  0  0
 37 38  1  0  0  0
 37 39  1  0  0  0
 37 40  1  0  0  0
  6  7  1  0  0  0
  7  8  2  0  0  0
  8  9  1  0  0  0
 14 15  2  0  0  0
 15 16  1  0  0  0
 16 19  1  0  0  0
 19 20  1  0  0  0
 20 21  1  0  0  0
 21 22  1  0  0  0
 22 23  1  0  0  0
M  END
> <minimizedAffinity>
-8.24523

$$$$
