CHEMBL1688248


 30 33  0  0  0  0  0  0  0  0999 V2000
  -16.1348    0.0342  -13.5970 C   0  0  0  0  0  0  0  0  0  0  0  0
  -15.2856    0.1494  -12.5972 N   0  0  0  0  0  0  0  0  0  0  0  0
  -15.0126   -1.1249  -12.1674 N   0  0  0  0  0  0  0  0  0  0  0  0
  -15.6940   -1.9464  -12.9422 C   0  0  0  0  0  0  0  0  0  0  0  0
  -16.4577   -1.2701  -13.8694 O   0  0  0  0  0  0  0  0  0  0  0  0
  -18.6666    2.4088  -15.0501 C   0  0  0  0  0  0  0  0  0  0  0  0
  -17.8866    3.1116  -15.9799 C   0  0  0  0  0  0  0  0  0  0  0  0
  -16.5349    2.8029  -16.1451 C   0  0  0  0  0  0  0  0  0  0  0  0
  -15.9413    1.7948  -15.3785 C   0  0  0  0  0  0  0  0  0  0  0  0
  -16.6948    1.0780  -14.4411 C   0  0  0  0  0  0  0  0  0  0  0  0
  -18.0585    1.3927  -14.2979 C   0  0  0  0  0  0  0  0  0  0  0  0
  -20.7404    3.2568  -15.9158 F   0  0  0  0  0  0  0  0  0  0  0  0
  -20.1226    2.7230  -14.8261 C   0  0  0  0  0  0  0  0  0  0  0  0
  -20.3085    3.6170  -13.8157 F   0  0  0  0  0  0  0  0  0  0  0  0
  -20.8454    1.6196  -14.4873 F   0  0  0  0  0  0  0  0  0  0  0  0
  -15.7303   -3.4058  -12.9715 C   0  0  0  0  0  0  0  0  0  0  0  0
  -16.4054   -4.1245  -11.9709 C   0  0  0  0  0  0  0  0  0  0  0  0
  -16.4815   -5.5110  -12.0335 C   0  0  0  0  0  0  0  0  0  0  0  0
  -15.8788   -6.1427  -13.1015 C   0  0  0  0  0  0  0  0  0  0  0  0
  -15.2254   -5.4907  -14.0860 N   0  0  0  0  0  0  0  0  0  0  0  0
  -15.1453   -4.1390  -14.0253 C   0  0  0  0  0  0  0  0  0  0  0  0
  -14.5053   -3.4763  -15.0734 N   0  0  0  0  0  0  0  0  0  0  0  0
  -14.9329   -2.5696  -15.2507 H   0  0  0  0  0  0  0  0  0  0  0  0
  -13.0549   -3.4441  -15.0716 C   0  0  0  0  0  0  0  0  0  0  0  0
  -12.5459   -2.0842  -14.6347 C   0  0  0  0  0  0  0  0  0  0  0  0
  -12.9576   -0.9391  -15.3260 C   0  0  0  0  0  0  0  0  0  0  0  0
  -12.5273    0.3037  -14.8839 C   0  0  0  0  0  0  0  0  0  0  0  0
  -11.7278    0.4870  -13.8128 N   0  0  0  0  0  0  0  0  0  0  0  0
  -11.3498   -0.6250  -13.1475 C   0  0  0  0  0  0  0  0  0  0  0  0
  -11.7333   -1.9078  -13.5069 C   0  0  0  0  0  0  0  0  0  0  0  0
 12 13  1  0  0  0
 13 14  1  0  0  0
 13 15  1  0  0  0
 13  6  1  0  0  0
  6  7  1  0  0  0
  6 11  2  0  0  0
  7  8  2  0  0  0
  8  9  1  0  0  0
  9 10  2  0  0  0
 10  1  1  0  0  0
 10 11  1  0  0  0
  1  2  2  0  0  0
  1  5  1  0  0  0
  2  3  1  0  0  0
  3  4  2  0  0  0
  4 16  1  0  0  0
  4  5  1  0  0  0
 16 17  1  0  0  0
 16 21  2  0  0  0
 17 18  2  0  0  0
 18 19  1  0  0  0
 19 20  2  0  0  0
 20 21  1  0  0  0
 21 22  1  0  0  0
 22 24  1  0  0  0
 22 23  1  0  0  0
 24 25  1  0  0  0
 25 26  1  0  0  0
 25 30  2  0  0  0
 26 27  2  0  0  0
 27 28  1  0  0  0
 28 29  2  0  0  0
 29 30  1  0  0  0
M  END
> <minimizedAffinity>
-8.89632

$$$$
