CHEMBL1983268


 44 49  0  0  0  0  0  0  0  0999 V2000
  -27.6315   -1.7902   -9.8201 C   0  0  0  0  0  0  0  0  0  0  0  0
  -28.0317   -0.6500  -10.1329 O   0  0  0  0  0  0  0  0  0  0  0  0
  -26.7431   -2.5002  -10.6587 N   0  0  0  0  0  0  0  0  0  0  0  0
  -26.9951   -3.4677  -10.7210 H   0  0  0  0  0  0  0  0  0  0  0  0
  -26.6172   -1.9931  -11.9138 C   0  0  0  0  0  0  0  0  0  0  0  0
  -27.4962   -2.3623  -12.8472 N   0  0  0  0  0  0  0  0  0  0  0  0
  -27.0913   -1.6381  -13.8947 N   0  0  0  0  0  0  0  0  0  0  0  0
  -25.7559   -1.3526  -13.8228 C   0  0  0  0  0  0  0  0  0  0  0  0
  -24.7620   -1.1779  -14.7763 C   0  0  0  0  0  0  0  0  0  0  0  0
  -23.5186   -0.7623  -14.2913 C   0  0  0  0  0  0  0  0  0  0  0  0
  -23.3477   -0.3450  -12.9588 C   0  0  0  0  0  0  0  0  0  0  0  0
  -24.3694   -0.5852  -12.0153 C   0  0  0  0  0  0  0  0  0  0  0  0
  -25.5371   -1.2341  -12.4567 C   0  0  0  0  0  0  0  0  0  0  0  0
  -27.7801   -1.3088  -14.5656 H   0  0  0  0  0  0  0  0  0  0  0  0
  -22.0510    0.3237  -12.5514 C   0  0  0  0  0  0  0  0  0  0  0  0
  -21.3871    1.1063  -13.6567 C   0  0  0  0  0  0  0  0  0  0  0  0
  -20.1238    0.7330  -14.1388 C   0  0  0  0  0  0  0  0  0  0  0  0
  -19.4896    1.5054  -15.1097 C   0  0  0  0  0  0  0  0  0  0  0  0
  -18.2701    1.1513  -15.5361 F   0  0  0  0  0  0  0  0  0  0  0  0
  -20.0930    2.6392  -15.6331 C   0  0  0  0  0  0  0  0  0  0  0  0
  -21.3547    2.9915  -15.1774 C   0  0  0  0  0  0  0  0  0  0  0  0
  -21.9575    4.0764  -15.6807 F   0  0  0  0  0  0  0  0  0  0  0  0
  -22.0040    2.2431  -14.1977 C   0  0  0  0  0  0  0  0  0  0  0  0
  -28.9757   -3.8355   -6.2771 C   0  0  0  0  0  0  0  0  0  0  0  0
  -29.1033   -4.4113   -7.5223 C   0  0  0  0  0  0  0  0  0  0  0  0
  -28.6784   -3.7420   -8.6633 C   0  0  0  0  0  0  0  0  0  0  0  0
  -28.1132   -2.4334   -8.5753 C   0  0  0  0  0  0  0  0  0  0  0  0
  -28.0254   -1.8024   -7.3105 C   0  0  0  0  0  0  0  0  0  0  0  0
  -28.4506   -2.5405   -6.1980 C   0  0  0  0  0  0  0  0  0  0  0  0
  -32.5061   -5.5566   -2.4896 C   0  0  0  0  0  0  0  0  0  0  0  0
  -31.2000   -5.4204   -3.1202 N   0  0  0  0  0  0  0  0  0  0  0  0
  -31.2188   -5.9705   -4.4914 C   0  0  0  0  0  0  0  0  0  0  0  0
  -29.8283   -5.8881   -5.1492 C   0  0  0  0  0  0  0  0  0  0  0  0
  -29.3358   -4.5074   -5.1235 N   0  0  0  0  0  0  0  0  0  0  0  0
  -29.3781   -3.8294   -3.8184 C   0  0  0  0  0  0  0  0  0  0  0  0
  -30.7792   -4.0047   -3.1726 C   0  0  0  0  0  0  0  0  0  0  0  0
  -27.5411   -0.5054   -7.1267 N   0  0  0  0  0  0  0  0  0  0  0  0
  -26.5277   -0.4916   -7.0134 H   0  0  0  0  0  0  0  0  0  0  0  0
  -28.2637    0.6454   -6.5666 C   0  0  0  0  0  0  0  0  0  0  0  0
  -28.4704    0.5496   -5.0518 C   0  0  0  0  0  0  0  0  0  0  0  0
  -29.6268    1.3880   -4.5309 C   0  0  0  0  0  0  0  0  0  0  0  0
  -30.7789    1.3033   -5.3622 O   0  0  0  0  0  0  0  0  0  0  0  0
  -30.5346    1.8108   -6.6758 C   0  0  0  0  0  0  0  0  0  0  0  0
  -29.5024    0.9820   -7.4073 C   0  0  0  0  0  0  0  0  0  0  0  0
 30 31  1  0  0  0
 31 32  1  0  0  0
 31 36  1  0  0  0
 32 33  1  0  0  0
 33 34  1  0  0  0
 34 24  1  0  0  0
 34 35  1  0  0  0
 24 25  1  0  0  0
 24 29  2  0  0  0
 25 26  2  0  0  0
 26 27  1  0  0  0
 27  1  1  0  0  0
 27 28  2  0  0  0
  1  2  2  0  0  0
  1  3  1  0  0  0
  3  5  1  0  0  0
  3  4  1  0  0  0
  5  6  2  0  0  0
  5 13  1  0  0  0
  6  7  1  0  0  0
  7  8  1  0  0  0
  7 14  1  0  0  0
  8  9  1  0  0  0
  8 13  2  0  0  0
  9 10  2  0  0  0
 10 11  1  0  0  0
 11 15  1  0  0  0
 11 12  2  0  0  0
 15 16  1  0  0  0
 16 17  1  0  0  0
 16 23  2  0  0  0
 17 18  2  0  0  0
 18 19  1  0  0  0
 18 20  1  0  0  0
 20 21  2  0  0  0
 21 22  1  0  0  0
 21 23  1  0  0  0
 12 13  1  0  0  0
 28 37  1  0  0  0
 28 29  1  0  0  0
 37 39  1  0  0  0
 37 38  1  0  0  0
 39 40  1  0  0  0
 39 44  1  0  0  0
 40 41  1  0  0  0
 41 42  1  0  0  0
 42 43  1  0  0  0
 43 44  1  0  0  0
 35 36  1  0  0  0
M  END
> <minimizedAffinity>
-10.57176

$$$$
