CHEMBL1172837


 36 40  0  0  0  0  0  0  0  0999 V2000
  -19.7306    0.3828  -15.4551 O   0  0  0  0  0  0  0  0  0  0  0  0
  -19.5943    1.1540  -14.5153 C   0  0  0  0  0  0  0  0  0  0  0  0
  -20.5421    1.3372  -13.5239 N   0  0  0  0  0  0  0  0  0  0  0  0
  -18.4959    1.9794  -14.3309 N   0  0  0  0  0  0  0  0  0  0  0  0
  -20.4017    2.1046  -12.8869 H   0  0  0  0  0  0  0  0  0  0  0  0
  -18.4342    2.4739  -13.4553 H   0  0  0  0  0  0  0  0  0  0  0  0
  -17.4026    2.1127  -15.2178 C   0  0  0  0  0  0  0  0  0  0  0  0
  -17.1541    3.2971  -15.9428 C   0  0  0  0  0  0  0  0  0  0  0  0
  -16.0924    3.3997  -16.8422 C   0  0  0  0  0  0  0  0  0  0  0  0
  -15.2712    2.3053  -16.9991 C   0  0  0  0  0  0  0  0  0  0  0  0
  -15.4854    1.1475  -16.2504 C   0  0  0  0  0  0  0  0  0  0  0  0
  -16.5392    1.0193  -15.3643 C   0  0  0  0  0  0  0  0  0  0  0  0
  -14.5093    0.2014  -16.5469 N   0  0  0  0  0  0  0  0  0  0  0  0
  -13.6218    0.6730  -17.5040 C   0  0  0  0  0  0  0  0  0  0  0  0
  -12.6566    0.0781  -17.9449 O   0  0  0  0  0  0  0  0  0  0  0  0
  -14.1135    2.0530  -17.8642 C   0  0  0  0  0  0  0  0  0  0  0  0
  -13.7207    2.9390  -18.7916 C   0  0  0  0  0  0  0  0  0  0  0  0
  -14.4212   -0.7116  -16.1292 H   0  0  0  0  0  0  0  0  0  0  0  0
  -12.6818    2.8294  -19.7498 C   0  0  0  0  0  0  0  0  0  0  0  0
  -11.6780    3.7216  -20.0862 C   0  0  0  0  0  0  0  0  0  0  0  0
  -10.8957    3.1391  -21.1105 C   0  0  0  0  0  0  0  0  0  0  0  0
  -11.4413    1.9072  -21.3809 C   0  0  0  0  0  0  0  0  0  0  0  0
  -12.5234    1.7313  -20.5583 N   0  0  0  0  0  0  0  0  0  0  0  0
  -13.1182    0.9075  -20.5570 H   0  0  0  0  0  0  0  0  0  0  0  0
  -21.8005    0.6986  -13.4701 C   0  0  0  0  0  0  0  0  0  0  0  0
  -22.5870    0.4349  -14.5909 C   0  0  0  0  0  0  0  0  0  0  0  0
  -23.8536   -0.1461  -14.4600 C   0  0  0  0  0  0  0  0  0  0  0  0
  -24.3657   -0.5088  -13.2065 C   0  0  0  0  0  0  0  0  0  0  0  0
  -23.5468   -0.2617  -12.0898 C   0  0  0  0  0  0  0  0  0  0  0  0
  -22.2839    0.3308  -12.2161 C   0  0  0  0  0  0  0  0  0  0  0  0
  -25.6953   -1.1454  -13.0666 C   0  0  0  0  0  0  0  0  0  0  0  0
  -26.3376   -1.2383  -11.8176 C   0  0  0  0  0  0  0  0  0  0  0  0
  -27.6144   -1.7939  -11.6919 C   0  0  0  0  0  0  0  0  0  0  0  0
  -28.2827   -2.2646  -12.8166 C   0  0  0  0  0  0  0  0  0  0  0  0
  -27.6654   -2.2038  -14.0611 C   0  0  0  0  0  0  0  0  0  0  0  0
  -26.3824   -1.6610  -14.1806 C   0  0  0  0  0  0  0  0  0  0  0  0
  1  2  2  0  0  0
  2  3  1  0  0  0
  2  4  1  0  0  0
  3 25  1  0  0  0
  3  5  1  0  0  0
 25 26  1  0  0  0
 25 30  2  0  0  0
 26 27  2  0  0  0
 27 28  1  0  0  0
 28 31  1  0  0  0
 28 29  2  0  0  0
 31 32  1  0  0  0
 31 36  2  0  0  0
 32 33  2  0  0  0
 33 34  1  0  0  0
 34 35  2  0  0  0
 35 36  1  0  0  0
 29 30  1  0  0  0
  4  7  1  0  0  0
  4  6  1  0  0  0
  7  8  1  0  0  0
  7 12  2  0  0  0
  8  9  2  0  0  0
  9 10  1  0  0  0
 10 11  2  0  0  0
 10 16  1  0  0  0
 11 12  1  0  0  0
 11 13  1  0  0  0
 13 14  1  0  0  0
 13 18  1  0  0  0
 14 15  2  0  0  0
 14 16  1  0  0  0
 16 17  2  0  0  0
 17 19  1  0  0  0
 19 20  2  0  0  0
 19 23  1  0  0  0
 20 21  1  0  0  0
 21 22  2  0  0  0
 22 23  1  0  0  0
 23 24  1  0  0  0
M  END
> <minimizedAffinity>
-9.25499

$$$$
