CHEMBL385898


 47 51  0  0  0  0  0  0  0  0999 V2000
  -29.7808   -6.9282   -7.1487 C   0  0  0  0  0  0  0  0  0  0  0  0
  -30.9593   -7.5288   -7.5227 C   0  0  0  0  0  0  0  0  0  0  0  0
  -30.8318   -8.7590   -8.1202 C   0  0  0  0  0  0  0  0  0  0  0  0
  -29.6575   -9.3976   -8.2778 N   0  0  0  0  0  0  0  0  0  0  0  0
  -28.5669   -8.7749   -7.8199 C   0  0  0  0  0  0  0  0  0  0  0  0
  -28.5943   -7.5355   -7.3072 N   0  0  0  0  0  0  0  0  0  0  0  0
  -29.8100   -5.6361   -6.5602 N   0  0  0  0  0  0  0  0  0  0  0  0
  -28.8968   -4.6888   -7.0400 C   0  0  0  0  0  0  0  0  0  0  0  0
  -28.5792   -4.5710   -8.2231 O   0  0  0  0  0  0  0  0  0  0  0  0
  -31.8270   -5.2801   -2.8239 C   0  0  0  0  0  0  0  0  0  0  0  0
  -32.1802   -4.4512   -3.8828 C   0  0  0  0  0  0  0  0  0  0  0  0
  -31.4950   -4.5507   -5.1087 C   0  0  0  0  0  0  0  0  0  0  0  0
  -30.4802   -5.5077   -5.2985 C   0  0  0  0  0  0  0  0  0  0  0  0
  -30.1400   -6.3589   -4.2310 C   0  0  0  0  0  0  0  0  0  0  0  0
  -30.8046   -6.2135   -3.0045 C   0  0  0  0  0  0  0  0  0  0  0  0
  -32.3274   -6.5148   -0.8374 C   0  0  0  0  0  0  0  0  0  0  0  0
  -32.3641   -5.2989   -1.5685 O   0  0  0  0  0  0  0  0  0  0  0  0
  -29.0788   -7.2029   -4.4217 O   0  0  0  0  0  0  0  0  0  0  0  0
  -28.9500   -8.2648   -3.4807 C   0  0  0  0  0  0  0  0  0  0  0  0
  -28.3104   -3.9265   -6.0181 O   0  0  0  0  0  0  0  0  0  0  0  0
  -28.3915   -2.5025   -5.8930 C   0  0  0  0  0  0  0  0  0  0  0  0
  -28.1407   -1.6181   -6.9613 C   0  0  0  0  0  0  0  0  0  0  0  0
  -28.0718   -1.9600   -8.4213 C   0  0  0  0  0  0  0  0  0  0  0  0
  -27.9066   -0.2599   -6.6611 C   0  0  0  0  0  0  0  0  0  0  0  0
  -27.9511    0.2174   -5.3556 C   0  0  0  0  0  0  0  0  0  0  0  0
  -28.2679   -0.6511   -4.3186 C   0  0  0  0  0  0  0  0  0  0  0  0
  -28.4845   -2.0167   -4.5683 C   0  0  0  0  0  0  0  0  0  0  0  0
  -28.8694   -2.9034   -3.4184 C   0  0  0  0  0  0  0  0  0  0  0  0
  -27.3762   -9.5019   -7.8598 N   0  0  0  0  0  0  0  0  0  0  0  0
  -27.2128   -9.8583   -8.7905 H   0  0  0  0  0  0  0  0  0  0  0  0
  -26.6475  -10.0896   -6.8138 C   0  0  0  0  0  0  0  0  0  0  0  0
  -27.1980  -10.3007   -5.5533 C   0  0  0  0  0  0  0  0  0  0  0  0
  -26.4398  -10.7650   -4.4769 C   0  0  0  0  0  0  0  0  0  0  0  0
  -25.0409  -10.9908   -4.6100 C   0  0  0  0  0  0  0  0  0  0  0  0
  -24.4827  -10.8093   -5.9071 C   0  0  0  0  0  0  0  0  0  0  0  0
  -25.2971  -10.3942   -6.9848 C   0  0  0  0  0  0  0  0  0  0  0  0
  -24.3252  -11.3728   -3.4612 N   0  0  0  0  0  0  0  0  0  0  0  0
  -24.7736  -12.4650   -2.5869 C   0  0  0  0  0  0  0  0  0  0  0  0
  -24.0723  -12.3447   -1.2024 C   0  0  0  0  0  0  0  0  0  0  0  0
  -22.5930  -12.3228   -1.3132 N   0  0  0  0  0  0  0  0  0  0  0  0
  -21.9560  -12.2233   -0.0058 C   0  0  0  0  0  0  0  0  0  0  0  0
  -22.2125  -11.1844   -2.1799 C   0  0  0  0  0  0  0  0  0  0  0  0
  -22.8489  -11.3094   -3.5836 C   0  0  0  0  0  0  0  0  0  0  0  0
  -27.0099  -11.0596   -3.2532 O   0  0  0  0  0  0  0  0  0  0  0  0
  -28.0073  -12.0715   -3.2137 C   0  0  0  0  0  0  0  0  0  0  0  0
  -23.1297  -11.0174   -6.0734 O   0  0  0  0  0  0  0  0  0  0  0  0
  -22.7132  -11.7051   -7.2508 C   0  0  0  0  0  0  0  0  0  0  0  0
 16 17  1  0  0  0
 17 10  1  0  0  0
 10 11  1  0  0  0
 10 15  2  0  0  0
 11 12  2  0  0  0
 12 13  1  0  0  0
 13  7  1  0  0  0
 13 14  2  0  0  0
  7  8  1  0  0  0
  7  1  1  0  0  0
  8  9  2  0  0  0
  8 20  1  0  0  0
 20 21  1  0  0  0
 21 22  1  0  0  0
 21 27  2  0  0  0
 22 23  1  0  0  0
 22 24  2  0  0  0
 24 25  1  0  0  0
 25 26  2  0  0  0
 26 27  1  0  0  0
 27 28  1  0  0  0
  1  2  1  0  0  0
  1  6  2  0  0  0
  2  3  2  0  0  0
  3  4  1  0  0  0
  4  5  2  0  0  0
  5 29  1  0  0  0
  5  6  1  0  0  0
 29 31  1  0  0  0
 29 30  1  0  0  0
 31 32  1  0  0  0
 31 36  2  0  0  0
 32 33  2  0  0  0
 33 44  1  0  0  0
 33 34  1  0  0  0
 44 45  1  0  0  0
 34 37  1  0  0  0
 34 35  2  0  0  0
 37 38  1  0  0  0
 37 43  1  0  0  0
 38 39  1  0  0  0
 39 40  1  0  0  0
 40 41  1  0  0  0
 40 42  1  0  0  0
 42 43  1  0  0  0
 35 46  1  0  0  0
 35 36  1  0  0  0
 46 47  1  0  0  0
 14 18  1  0  0  0
 14 15  1  0  0  0
 18 19  1  0  0  0
M  END
> <minimizedAffinity>
-7.63077

$$$$
