CHEMBL453593


 35 38  0  0  0  0  0  0  0  0999 V2000
  -14.8078   -4.5378  -13.2668 C   0  0  0  0  0  0  0  0  0  0  0  0
  -14.6281   -3.2060  -13.3303 C   0  0  0  0  0  0  0  0  0  0  0  0
  -15.5722   -2.4332  -12.4516 C   0  0  0  0  0  0  0  0  0  0  0  0
  -16.2191   -3.4729  -11.7428 N   0  0  0  0  0  0  0  0  0  0  0  0
  -15.7847   -4.7070  -12.1412 C   0  0  0  0  0  0  0  0  0  0  0  0
  -16.0920   -5.7495  -11.5914 O   0  0  0  0  0  0  0  0  0  0  0  0
  -16.7165   -3.3546  -10.8714 H   0  0  0  0  0  0  0  0  0  0  0  0
  -13.6149   -2.3598  -13.8681 C   0  0  0  0  0  0  0  0  0  0  0  0
  -13.3153   -1.1889  -13.1990 C   0  0  0  0  0  0  0  0  0  0  0  0
  -13.2814   -0.2130  -14.1670 N   0  0  0  0  0  0  0  0  0  0  0  0
  -13.1721   -0.7863  -15.4168 C   0  0  0  0  0  0  0  0  0  0  0  0
  -13.1081   -0.2093  -16.6949 C   0  0  0  0  0  0  0  0  0  0  0  0
  -12.9899   -1.0617  -17.7948 C   0  0  0  0  0  0  0  0  0  0  0  0
  -12.9445   -2.4425  -17.6274 C   0  0  0  0  0  0  0  0  0  0  0  0
  -13.1086   -3.0131  -16.3585 C   0  0  0  0  0  0  0  0  0  0  0  0
  -13.2390   -2.1760  -15.2313 C   0  0  0  0  0  0  0  0  0  0  0  0
  -13.5495    1.1895  -13.8814 C   0  0  0  0  0  0  0  0  0  0  0  0
  -12.2744    2.0501  -13.9515 C   0  0  0  0  0  0  0  0  0  0  0  0
  -12.2892    2.9226  -15.0897 O   0  0  0  0  0  0  0  0  0  0  0  0
  -12.9888    3.5887  -14.9713 H   0  0  0  0  0  0  0  0  0  0  0  0
  -12.1399    2.8977  -12.6801 C   0  0  0  0  0  0  0  0  0  0  0  0
  -12.7874    2.2927  -11.5630 O   0  0  0  0  0  0  0  0  0  0  0  0
  -13.5432    1.7705  -11.8853 H   0  0  0  0  0  0  0  0  0  0  0  0
  -12.5862   -7.5325  -13.9979 C   0  0  0  0  0  0  0  0  0  0  0  0
  -13.1921   -6.4506  -13.3273 C   0  0  0  0  0  0  0  0  0  0  0  0
  -14.1634   -5.6663  -13.9518 C   0  0  0  0  0  0  0  0  0  0  0  0
  -14.5074   -5.9640  -15.2823 C   0  0  0  0  0  0  0  0  0  0  0  0
  -13.8989   -7.0089  -15.9774 C   0  0  0  0  0  0  0  0  0  0  0  0
  -12.9520   -7.8255  -15.3311 C   0  0  0  0  0  0  0  0  0  0  0  0
  -11.5052   -8.2846  -12.0116 C   0  0  0  0  0  0  0  0  0  0  0  0
  -11.5778   -8.2731  -13.4319 O   0  0  0  0  0  0  0  0  0  0  0  0
  -14.2167   -7.3365  -17.2743 O   0  0  0  0  0  0  0  0  0  0  0  0
  -13.8175   -6.3924  -18.2648 C   0  0  0  0  0  0  0  0  0  0  0  0
  -12.4067   -8.8214  -16.1036 O   0  0  0  0  0  0  0  0  0  0  0  0
  -13.0563  -10.0858  -16.0668 C   0  0  0  0  0  0  0  0  0  0  0  0
 30 31  1  0  0  0
 31 24  1  0  0  0
 24 25  1  0  0  0
 24 29  2  0  0  0
 25 26  2  0  0  0
 26  1  1  0  0  0
 26 27  1  0  0  0
  1  2  2  0  0  0
  1  5  1  0  0  0
  2  8  1  0  0  0
  2  3  1  0  0  0
  8  9  2  0  0  0
  8 16  1  0  0  0
  9 10  1  0  0  0
 10 17  1  0  0  0
 10 11  1  0  0  0
 17 18  1  0  0  0
 18 19  1  0  0  0
 18 21  1  0  0  0
 19 20  1  0  0  0
 21 22  1  0  0  0
 22 23  1  0  0  0
 11 12  1  0  0  0
 11 16  2  0  0  0
 12 13  2  0  0  0
 13 14  1  0  0  0
 14 15  2  0  0  0
 15 16  1  0  0  0
  3  4  1  0  0  0
  4  5  1  0  0  0
  4  7  1  0  0  0
  5  6  2  0  0  0
 27 28  2  0  0  0
 28 32  1  0  0  0
 28 29  1  0  0  0
 32 33  1  0  0  0
 29 34  1  0  0  0
 34 35  1  0  0  0
M  END
> <minimizedAffinity>
-6.21569

$$$$
