CHEMBL1233881


 26 29  0  0  0  0  0  0  0  0999 V2000
  -15.8940   -0.6008  -13.8981 C   0  0  0  0  0  0  0  0  0  0  0  0
  -17.0682   -0.1372  -14.3615 N   0  0  0  0  0  0  0  0  0  0  0  0
  -16.7548    1.0090  -14.9997 N   0  0  0  0  0  0  0  0  0  0  0  0
  -15.4128    1.2929  -14.9870 C   0  0  0  0  0  0  0  0  0  0  0  0
  -14.8031    2.3682  -15.5111 N   0  0  0  0  0  0  0  0  0  0  0  0
  -13.4792    2.3397  -15.3018 C   0  0  0  0  0  0  0  0  0  0  0  0
  -12.7639    1.3830  -14.6860 N   0  0  0  0  0  0  0  0  0  0  0  0
  -13.4102    0.3095  -14.1821 C   0  0  0  0  0  0  0  0  0  0  0  0
  -12.6011   -0.6455  -13.5826 N   0  0  0  0  0  0  0  0  0  0  0  0
  -14.8083    0.2485  -14.3021 C   0  0  0  0  0  0  0  0  0  0  0  0
  -11.6237   -0.4635  -13.7843 H   0  0  0  0  0  0  0  0  0  0  0  0
  -12.9003   -1.6038  -13.7159 H   0  0  0  0  0  0  0  0  0  0  0  0
  -15.7487   -4.1517  -11.4817 C   0  0  0  0  0  0  0  0  0  0  0  0
  -15.5730   -2.8839  -10.9179 C   0  0  0  0  0  0  0  0  0  0  0  0
  -15.6825   -1.7328  -11.6959 C   0  0  0  0  0  0  0  0  0  0  0  0
  -15.8681   -1.8140  -13.0745 C   0  0  0  0  0  0  0  0  0  0  0  0
  -16.0603   -3.0814  -13.6416 C   0  0  0  0  0  0  0  0  0  0  0  0
  -16.0317   -4.2491  -12.8546 C   0  0  0  0  0  0  0  0  0  0  0  0
  -14.2775   -5.8058  -10.6207 C   0  0  0  0  0  0  0  0  0  0  0  0
  -15.6015   -5.2969  -10.7450 O   0  0  0  0  0  0  0  0  0  0  0  0
  -16.2945   -5.3840  -13.5806 O   0  0  0  0  0  0  0  0  0  0  0  0
  -15.2031   -6.0334  -14.2186 C   0  0  0  0  0  0  0  0  0  0  0  0
  -17.7431    1.8671  -15.6105 C   0  0  0  0  0  0  0  0  0  0  0  0
  -18.0751    3.1043  -14.7208 C   0  0  0  0  0  0  0  0  0  0  0  0
  -19.5538    2.9020  -15.0941 C   0  0  0  0  0  0  0  0  0  0  0  0
  -19.2121    1.4218  -15.3403 C   0  0  0  0  0  0  0  0  0  0  0  0
 19 20  1  0  0  0
 20 13  1  0  0  0
 13 14  1  0  0  0
 13 18  2  0  0  0
 14 15  2  0  0  0
 15 16  1  0  0  0
 16  1  1  0  0  0
 16 17  2  0  0  0
  1  2  2  0  0  0
  1 10  1  0  0  0
  2  3  1  0  0  0
  3 23  1  0  0  0
  3  4  1  0  0  0
 23 24  1  0  0  0
 23 26  1  0  0  0
 24 25  1  0  0  0
 25 26  1  0  0  0
  4  5  1  0  0  0
  4 10  2  0  0  0
  5  6  2  0  0  0
  6  7  1  0  0  0
  7  8  2  0  0  0
  8  9  1  0  0  0
  8 10  1  0  0  0
  9 11  1  0  0  0
  9 12  1  0  0  0
 17 18  1  0  0  0
 18 21  1  0  0  0
 21 22  1  0  0  0
M  END
> <minimizedAffinity>
-7.16702

$$$$
