CHEMBL3919750


 36 40  0  0  0  0  0  0  0  0999 V2000
  -11.7612   -4.9836  -13.2132 N   0  0  0  0  0  0  0  0  0  0  0  0
  -12.0603   -3.6233  -13.6419 C   0  0  0  0  0  0  0  0  0  0  0  0
  -11.0107   -2.7235  -13.4656 C   0  0  0  0  0  0  0  0  0  0  0  0
  -11.2536   -1.3727  -13.3189 C   0  0  0  0  0  0  0  0  0  0  0  0
  -12.5138   -0.8549  -13.5049 C   0  0  0  0  0  0  0  0  0  0  0  0
  -12.6191    0.4351  -13.1709 N   0  0  0  0  0  0  0  0  0  0  0  0
  -13.7649    1.0460  -13.4815 C   0  0  0  0  0  0  0  0  0  0  0  0
  -14.7623    0.3998  -14.1829 C   0  0  0  0  0  0  0  0  0  0  0  0
  -14.7114   -0.9589  -14.4258 N   0  0  0  0  0  0  0  0  0  0  0  0
  -13.5730   -1.6494  -14.0212 C   0  0  0  0  0  0  0  0  0  0  0  0
  -13.3225   -3.0804  -14.0189 C   0  0  0  0  0  0  0  0  0  0  0  0
  -15.7607    1.2628  -14.7969 C   0  0  0  0  0  0  0  0  0  0  0  0
  -15.5737    2.3928  -15.6346 C   0  0  0  0  0  0  0  0  0  0  0  0
  -16.7019    3.0867  -15.8313 N   0  0  0  0  0  0  0  0  0  0  0  0
  -17.6134    2.4011  -15.1213 N   0  0  0  0  0  0  0  0  0  0  0  0
  -19.0241    2.6161  -15.3401 C   0  0  0  0  0  0  0  0  0  0  0  0
  -17.0581    1.4239  -14.3401 C   0  0  0  0  0  0  0  0  0  0  0  0
  -13.4899   -7.3826  -15.5478 C   0  0  0  0  0  0  0  0  0  0  0  0
  -13.3157   -8.5787  -14.8543 C   0  0  0  0  0  0  0  0  0  0  0  0
  -12.6638   -8.5900  -13.6147 C   0  0  0  0  0  0  0  0  0  0  0  0
  -12.1267   -7.3819  -13.1233 C   0  0  0  0  0  0  0  0  0  0  0  0
  -12.2736   -6.1594  -13.8084 C   0  0  0  0  0  0  0  0  0  0  0  0
  -12.9929   -6.1844  -15.0111 C   0  0  0  0  0  0  0  0  0  0  0  0
  -12.4709   -9.8757  -12.8464 C   0  0  0  0  0  0  0  0  0  0  0  0
  -11.1709   -9.9772  -12.2708 O   0  0  0  0  0  0  0  0  0  0  0  0
  -10.5323   -9.8599  -12.9947 H   0  0  0  0  0  0  0  0  0  0  0  0
  -13.7634   -8.1751  -17.7728 C   0  0  0  0  0  0  0  0  0  0  0  0
  -14.1333   -7.2536  -16.7515 O   0  0  0  0  0  0  0  0  0  0  0  0
  -11.6648   -4.9364  -11.7123 C   0  0  0  0  0  0  0  0  0  0  0  0
  -12.8895   -4.5299  -10.8711 C   0  0  0  0  0  0  0  0  0  0  0  0
  -14.0832   -5.5073  -10.7441 C   0  0  0  0  0  0  0  0  0  0  0  0
  -15.3131   -4.7533  -10.3905 N   0  0  0  0  0  0  0  0  0  0  0  0
  -16.3718   -4.7768  -11.4180 C   0  0  0  0  0  0  0  0  0  0  0  0
  -16.2224   -3.4805  -12.1914 C   0  0  0  0  0  0  0  0  0  0  0  0
  -15.8355   -2.4949  -11.1161 C   0  0  0  0  0  0  0  0  0  0  0  0
  -15.0898   -3.3307  -10.0769 C   0  0  0  0  0  0  0  0  0  0  0  0
 27 28  1  0  0  0
 28 18  1  0  0  0
 18 19  1  0  0  0
 18 23  2  0  0  0
 19 20  2  0  0  0
 20 24  1  0  0  0
 20 21  1  0  0  0
 24 25  1  0  0  0
 25 26  1  0  0  0
 21 22  2  0  0  0
 22  1  1  0  0  0
 22 23  1  0  0  0
  1 29  1  0  0  0
  1  2  1  0  0  0
 29 30  1  0  0  0
 30 31  1  0  0  0
 31 32  1  0  0  0
 32 33  1  0  0  0
 32 36  1  0  0  0
 33 34  1  0  0  0
 34 35  1  0  0  0
 35 36  1  0  0  0
  2  3  1  0  0  0
  2 11  2  0  0  0
  3  4  2  0  0  0
  4  5  1  0  0  0
  5  6  1  0  0  0
  5 10  2  0  0  0
  6  7  2  0  0  0
  7  8  1  0  0  0
  8 12  1  0  0  0
  8  9  2  0  0  0
 12 13  1  0  0  0
 12 17  2  0  0  0
 13 14  2  0  0  0
 14 15  1  0  0  0
 15 16  1  0  0  0
 15 17  1  0  0  0
  9 10  1  0  0  0
 10 11  1  0  0  0
M  END
> <minimizedAffinity>
-7.26405

$$$$
