CHEMBL3648111


 30 31  0  0  0  0  0  0  0  0999 V2000
  -31.0082   -7.4130   -6.2546 N   0  0  0  0  0  0  0  0  0  0  0  0
  -31.7369   -7.8657   -5.7199 H   0  0  0  0  0  0  0  0  0  0  0  0
  -30.5579   -6.2949   -5.5472 C   0  0  0  0  0  0  0  0  0  0  0  0
  -30.3455   -6.4894   -4.2395 N   0  0  0  0  0  0  0  0  0  0  0  0
  -29.8479   -5.4432   -3.5497 C   0  0  0  0  0  0  0  0  0  0  0  0
  -29.6026   -4.2068   -4.1020 C   0  0  0  0  0  0  0  0  0  0  0  0
  -28.8530   -2.8318   -3.0473 Br  0  0  0  0  0  0  0  0  0  0  0  0
  -29.8822   -4.0710   -5.4525 C   0  0  0  0  0  0  0  0  0  0  0  0
  -30.3526   -5.1153   -6.1622 N   0  0  0  0  0  0  0  0  0  0  0  0
  -29.6093   -2.8580   -6.1055 N   0  0  0  0  0  0  0  0  0  0  0  0
  -30.3828   -2.6034   -6.7217 H   0  0  0  0  0  0  0  0  0  0  0  0
  -28.2977   -2.6775   -6.7493 C   0  0  0  0  0  0  0  0  0  0  0  0
  -27.8626   -1.2221   -6.5644 C   0  0  0  0  0  0  0  0  0  0  0  0
  -28.4403   -3.0268   -8.2609 C   0  0  0  0  0  0  0  0  0  0  0  0
  -27.5294   -2.2125   -9.1745 C   0  0  0  0  0  0  0  0  0  0  0  0
  -28.1588   -4.4213   -8.4593 O   0  0  0  0  0  0  0  0  0  0  0  0
  -27.2329   -4.5741   -8.1991 H   0  0  0  0  0  0  0  0  0  0  0  0
  -30.3807  -10.1919   -8.6634 C   0  0  0  0  0  0  0  0  0  0  0  0
  -30.9624   -9.4031   -7.6523 C   0  0  0  0  0  0  0  0  0  0  0  0
  -30.3607   -8.2038   -7.2173 C   0  0  0  0  0  0  0  0  0  0  0  0
  -29.1687   -7.8119   -7.8317 C   0  0  0  0  0  0  0  0  0  0  0  0
  -28.5842   -8.5692   -8.8417 C   0  0  0  0  0  0  0  0  0  0  0  0
  -29.1912   -9.7527   -9.2608 C   0  0  0  0  0  0  0  0  0  0  0  0
  -28.4400  -10.6268  -10.6244 S   0  0  0  0  0  0  0  0  0  0  0  0
  -26.8703   -9.8386  -10.8490 C   0  0  0  0  0  0  0  0  0  0  0  0
  -28.2072  -12.0750  -10.1440 N   0  0  0  0  0  0  0  0  0  0  0  0
  -29.2104  -10.2911  -11.8095 O   0  0  0  0  0  0  0  0  0  0  0  0
  -27.4700  -12.1228   -9.4393 H   0  0  0  0  0  0  0  0  0  0  0  0
  -31.4982  -12.2174   -8.0909 C   0  0  0  0  0  0  0  0  0  0  0  0
  -30.8860  -11.3944   -9.0778 O   0  0  0  0  0  0  0  0  0  0  0  0
 29 30  1  0  0  0
 30 18  1  0  0  0
 18 19  1  0  0  0
 18 23  2  0  0  0
 19 20  2  0  0  0
 20  1  1  0  0  0
 20 21  1  0  0  0
  1  3  1  0  0  0
  1  2  1  0  0  0
  3  4  1  0  0  0
  3  9  2  0  0  0
  4  5  2  0  0  0
  5  6  1  0  0  0
  6  7  1  0  0  0
  6  8  2  0  0  0
  8 10  1  0  0  0
  8  9  1  0  0  0
 10 11  1  0  0  0
 12 14  1  0  0  0
 12 13  1  0  0  0
 12 10  1  0  0  0
 14 15  1  0  0  0
 14 16  1  0  0  0
 16 17  1  0  0  0
 21 22  2  0  0  0
 22 23  1  0  0  0
 23 24  1  0  0  0
 24 25  1  0  0  0
 24 26  2  0  0  0
 24 27  2  0  0  0
 26 28  1  0  0  0
M  END
> <minimizedAffinity>
-7.22099

$$$$
