CHEMBL3925803


 35 38  0  0  0  0  0  0  0  0999 V2000
  -26.9648   -1.5928   -9.2661 C   0  0  0  0  0  0  0  0  0  0  0  0
  -25.9677   -1.2569  -10.1887 C   0  0  0  0  0  0  0  0  0  0  0  0
  -26.1436   -1.4468  -11.5746 C   0  0  0  0  0  0  0  0  0  0  0  0
  -25.1887   -1.1096  -12.5409 C   0  0  0  0  0  0  0  0  0  0  0  0
  -25.4243   -1.2491  -13.8592 N   0  0  0  0  0  0  0  0  0  0  0  0
  -26.6162   -1.7318  -14.2104 C   0  0  0  0  0  0  0  0  0  0  0  0
  -27.5877   -2.1039  -13.3739 N   0  0  0  0  0  0  0  0  0  0  0  0
  -27.3436   -1.9520  -12.0661 C   0  0  0  0  0  0  0  0  0  0  0  0
  -28.3067   -2.3290  -11.1505 C   0  0  0  0  0  0  0  0  0  0  0  0
  -28.1293   -2.2094   -9.7572 C   0  0  0  0  0  0  0  0  0  0  0  0
  -27.7257   -0.4180   -7.2885 C   0  0  0  0  0  0  0  0  0  0  0  0
  -26.8471   -1.3523   -7.9249 O   0  0  0  0  0  0  0  0  0  0  0  0
  -23.9255   -0.6186  -12.1142 N   0  0  0  0  0  0  0  0  0  0  0  0
  -23.3755   -1.3908  -11.7512 H   0  0  0  0  0  0  0  0  0  0  0  0
  -23.1715    0.3155  -12.8456 C   0  0  0  0  0  0  0  0  0  0  0  0
  -23.5687    1.6587  -12.8917 C   0  0  0  0  0  0  0  0  0  0  0  0
  -22.8973    2.5755  -13.6951 C   0  0  0  0  0  0  0  0  0  0  0  0
  -21.8071    2.1590  -14.4579 C   0  0  0  0  0  0  0  0  0  0  0  0
  -21.0687    3.3210  -15.4988 Cl  0  0  0  0  0  0  0  0  0  0  0  0
  -21.3657    0.8314  -14.3746 C   0  0  0  0  0  0  0  0  0  0  0  0
  -20.0131    0.2505  -15.2800 Cl  0  0  0  0  0  0  0  0  0  0  0  0
  -22.0405   -0.0841  -13.5588 C   0  0  0  0  0  0  0  0  0  0  0  0
  -29.0775   -2.7161   -8.8730 O   0  0  0  0  0  0  0  0  0  0  0  0
  -28.7339   -4.0361   -8.4006 C   0  0  0  0  0  0  0  0  0  0  0  0
  -29.0653   -4.3338   -6.9336 C   0  0  0  0  0  0  0  0  0  0  0  0
  -30.1253   -5.4399   -6.8026 C   0  0  0  0  0  0  0  0  0  0  0  0
  -30.0914   -6.0933   -5.4480 N   0  0  0  0  0  0  0  0  0  0  0  0
  -30.8712   -5.3853   -4.4073 C   0  0  0  0  0  0  0  0  0  0  0  0
  -30.8873   -3.8602   -4.5036 C   0  0  0  0  0  0  0  0  0  0  0  0
  -29.5656   -3.2054   -4.8708 C   0  0  0  0  0  0  0  0  0  0  0  0
  -29.4256   -3.1097   -6.2856 O   0  0  0  0  0  0  0  0  0  0  0  0
  -28.6284   -6.8396   -5.0002 S   0  0  0  0  0  0  0  0  0  0  0  0
  -29.1032   -8.0059   -3.7419 C   0  0  0  0  0  0  0  0  0  0  0  0
  -28.1563   -7.5917   -6.1439 O   0  0  0  0  0  0  0  0  0  0  0  0
  -27.7883   -5.8424   -4.3739 O   0  0  0  0  0  0  0  0  0  0  0  0
 11 12  1  0  0  0
 12  1  1  0  0  0
  1  2  1  0  0  0
  1 10  2  0  0  0
  2  3  2  0  0  0
  3  4  1  0  0  0
  3  8  1  0  0  0
  4 13  1  0  0  0
  4  5  2  0  0  0
 13 15  1  0  0  0
 13 14  1  0  0  0
 15 16  1  0  0  0
 15 22  2  0  0  0
 16 17  2  0  0  0
 17 18  1  0  0  0
 18 19  1  0  0  0
 18 20  2  0  0  0
 20 21  1  0  0  0
 20 22  1  0  0  0
  5  6  1  0  0  0
  6  7  2  0  0  0
  7  8  1  0  0  0
  8  9  2  0  0  0
  9 10  1  0  0  0
 10 23  1  0  0  0
 23 24  1  0  0  0
 24 25  1  0  0  0
 25 26  1  0  0  0
 25 31  1  0  0  0
 26 27  1  0  0  0
 27 32  1  0  0  0
 27 28  1  0  0  0
 32 33  1  0  0  0
 32 34  2  0  0  0
 32 35  2  0  0  0
 28 29  1  0  0  0
 29 30  1  0  0  0
 30 31  1  0  0  0
M  END
> <minimizedAffinity>
-7.31378

$$$$
