CHEMBL191336


 28 30  0  0  0  0  0  0  0  0999 V2000
  -15.4621   -1.0656  -13.1285 C   0  0  0  0  0  0  0  0  0  0  0  0
  -14.3906   -0.3602  -12.7727 N   0  0  0  0  0  0  0  0  0  0  0  0
  -14.2397    0.7698  -13.4559 C   0  0  0  0  0  0  0  0  0  0  0  0
  -15.0615    1.2489  -14.3879 N   0  0  0  0  0  0  0  0  0  0  0  0
  -16.0946    0.4630  -14.6731 C   0  0  0  0  0  0  0  0  0  0  0  0
  -16.3231   -0.7011  -14.0709 N   0  0  0  0  0  0  0  0  0  0  0  0
  -16.3948   -4.6628  -12.4558 C   0  0  0  0  0  0  0  0  0  0  0  0
  -16.0736   -3.4940  -13.1376 C   0  0  0  0  0  0  0  0  0  0  0  0
  -15.7351   -2.3264  -12.4291 C   0  0  0  0  0  0  0  0  0  0  0  0
  -15.6948   -2.4083  -11.0380 C   0  0  0  0  0  0  0  0  0  0  0  0
  -15.9953   -3.6130  -10.4320 C   0  0  0  0  0  0  0  0  0  0  0  0
  -16.3431   -4.7229  -11.1111 N   0  0  0  0  0  0  0  0  0  0  0  0
  -16.7046   -5.8206  -13.1953 N   0  0  0  0  0  0  0  0  0  0  0  0
  -17.0922   -6.5293  -12.5792 H   0  0  0  0  0  0  0  0  0  0  0  0
  -15.5482   -6.3309  -13.9328 C   0  0  0  0  0  0  0  0  0  0  0  0
  -14.9826   -7.5573  -13.2269 C   0  0  0  0  0  0  0  0  0  0  0  0
  -14.1805   -6.9121  -11.0624 O   0  0  0  0  0  0  0  0  0  0  0  0
  -13.7642   -7.1928  -12.3922 C   0  0  0  0  0  0  0  0  0  0  0  0
  -13.3796   -6.7217  -10.5447 H   0  0  0  0  0  0  0  0  0  0  0  0
  -16.9965    0.9048  -15.6376 N   0  0  0  0  0  0  0  0  0  0  0  0
  -16.7997    0.5331  -16.5530 H   0  0  0  0  0  0  0  0  0  0  0  0
  -18.2511    1.4987  -15.4305 C   0  0  0  0  0  0  0  0  0  0  0  0
  -18.3818    2.8913  -15.4904 C   0  0  0  0  0  0  0  0  0  0  0  0
  -19.6018    3.5043  -15.1853 C   0  0  0  0  0  0  0  0  0  0  0  0
  -20.7042    2.7319  -14.8187 C   0  0  0  0  0  0  0  0  0  0  0  0
  -20.5855    1.3519  -14.7582 C   0  0  0  0  0  0  0  0  0  0  0  0
  -21.9265    0.3823  -14.2894 Cl  0  0  0  0  0  0  0  0  0  0  0  0
  -19.3716    0.7395  -15.0628 C   0  0  0  0  0  0  0  0  0  0  0  0
 17 18  1  0  0  0
 17 19  1  0  0  0
 18 16  1  0  0  0
 16 15  1  0  0  0
 15 13  1  0  0  0
 13  7  1  0  0  0
 13 14  1  0  0  0
  7  8  1  0  0  0
  7 12  2  0  0  0
  8  9  2  0  0  0
  9  1  1  0  0  0
  9 10  1  0  0  0
  1  2  1  0  0  0
  1  6  2  0  0  0
  2  3  2  0  0  0
  3  4  1  0  0  0
  4  5  2  0  0  0
  5 20  1  0  0  0
  5  6  1  0  0  0
 20 22  1  0  0  0
 20 21  1  0  0  0
 22 23  1  0  0  0
 22 28  2  0  0  0
 23 24  2  0  0  0
 24 25  1  0  0  0
 25 26  2  0  0  0
 26 27  1  0  0  0
 26 28  1  0  0  0
 10 11  2  0  0  0
 11 12  1  0  0  0
M  END
> <minimizedAffinity>
-8.70417

$$$$
