CHEMBL3966821


 40 45  0  0  0  0  0  0  0  0999 V2000
  -27.2940   -1.5839  -12.0916 C   0  0  0  0  0  0  0  0  0  0  0  0
  -28.2235   -2.2118  -12.9494 C   0  0  0  0  0  0  0  0  0  0  0  0
  -27.9875   -2.3286  -14.3162 C   0  0  0  0  0  0  0  0  0  0  0  0
  -26.8148   -1.8162  -14.8507 C   0  0  0  0  0  0  0  0  0  0  0  0
  -25.8583   -1.2440  -14.0094 C   0  0  0  0  0  0  0  0  0  0  0  0
  -26.0738   -1.1324  -12.6220 C   0  0  0  0  0  0  0  0  0  0  0  0
  -27.5903   -2.3455   -9.7512 N   0  0  0  0  0  0  0  0  0  0  0  0
  -27.7912   -1.3616  -10.7033 C   0  0  0  0  0  0  0  0  0  0  0  0
  -28.3468   -0.2823  -10.4970 O   0  0  0  0  0  0  0  0  0  0  0  0
  -27.0144   -3.1361  -10.0197 H   0  0  0  0  0  0  0  0  0  0  0  0
  -30.3337   -2.8312   -2.4219 C   0  0  0  0  0  0  0  0  0  0  0  0
  -29.9930   -2.9793   -3.8752 C   0  0  0  0  0  0  0  0  0  0  0  0
  -30.4587   -4.0724   -4.6049 C   0  0  0  0  0  0  0  0  0  0  0  0
  -30.0953   -4.1725   -5.9413 C   0  0  0  0  0  0  0  0  0  0  0  0
  -29.2721   -3.1960   -6.5093 C   0  0  0  0  0  0  0  0  0  0  0  0
  -28.8684   -3.2705   -7.8500 C   0  0  0  0  0  0  0  0  0  0  0  0
  -28.0355   -2.2992   -8.4130 C   0  0  0  0  0  0  0  0  0  0  0  0
  -27.6103   -1.2409   -7.6115 C   0  0  0  0  0  0  0  0  0  0  0  0
  -28.0250   -1.1631   -6.2720 C   0  0  0  0  0  0  0  0  0  0  0  0
  -28.8429   -2.1261   -5.7001 C   0  0  0  0  0  0  0  0  0  0  0  0
  -29.1961   -2.0268   -4.4098 N   0  0  0  0  0  0  0  0  0  0  0  0
  -24.7035   -0.5169  -11.6734 S   0  0  0  0  0  0  0  0  0  0  0  0
  -23.4929    0.0569  -12.8519 C   0  0  0  0  0  0  0  0  0  0  0  0
  -22.9374   -0.6931  -13.9006 C   0  0  0  0  0  0  0  0  0  0  0  0
  -21.9027   -0.1692  -14.7151 C   0  0  0  0  0  0  0  0  0  0  0  0
  -21.5296    1.1757  -14.5405 C   0  0  0  0  0  0  0  0  0  0  0  0
  -20.6086    2.1580  -15.0532 C   0  0  0  0  0  0  0  0  0  0  0  0
  -21.3795    3.2478  -15.2733 N   0  0  0  0  0  0  0  0  0  0  0  0
  -22.1831    3.2103  -14.1948 N   0  0  0  0  0  0  0  0  0  0  0  0
  -22.3343    1.9389  -13.7011 C   0  0  0  0  0  0  0  0  0  0  0  0
  -23.1619    1.4120  -12.7224 C   0  0  0  0  0  0  0  0  0  0  0  0
  -22.6965    4.0332  -13.9464 H   0  0  0  0  0  0  0  0  0  0  0  0
  -19.3205    2.5542  -14.4712 C   0  0  0  0  0  0  0  0  0  0  0  0
  -18.1596    2.5300  -15.1633 C   0  0  0  0  0  0  0  0  0  0  0  0
  -16.9279    1.8876  -14.6370 C   0  0  0  0  0  0  0  0  0  0  0  0
  -16.9606    1.0792  -13.4816 C   0  0  0  0  0  0  0  0  0  0  0  0
  -15.8890    0.2399  -13.1529 C   0  0  0  0  0  0  0  0  0  0  0  0
  -14.7677    0.1972  -13.9717 C   0  0  0  0  0  0  0  0  0  0  0  0
  -14.7116    0.9984  -15.1106 C   0  0  0  0  0  0  0  0  0  0  0  0
  -15.7860    1.8367  -15.4418 C   0  0  0  0  0  0  0  0  0  0  0  0
 11 12  1  0  0  0
 12 13  1  0  0  0
 12 21  2  0  0  0
 13 14  2  0  0  0
 14 15  1  0  0  0
 15 16  1  0  0  0
 15 20  2  0  0  0
 16 17  2  0  0  0
 17  7  1  0  0  0
 17 18  1  0  0  0
  7  8  1  0  0  0
  7 10  1  0  0  0
  8  9  2  0  0  0
  8  1  1  0  0  0
  1  2  1  0  0  0
  1  6  2  0  0  0
  2  3  2  0  0  0
  3  4  1  0  0  0
  4  5  2  0  0  0
  5  6  1  0  0  0
  6 22  1  0  0  0
 22 23  1  0  0  0
 23 24  1  0  0  0
 23 31  2  0  0  0
 24 25  2  0  0  0
 25 26  1  0  0  0
 26 27  1  0  0  0
 26 30  2  0  0  0
 27 33  1  0  0  0
 27 28  2  0  0  0
 33 34  2  0  0  0
 34 35  1  0  0  0
 35 36  1  0  0  0
 35 40  2  0  0  0
 36 37  2  0  0  0
 37 38  1  0  0  0
 38 39  2  0  0  0
 39 40  1  0  0  0
 28 29  1  0  0  0
 29 30  1  0  0  0
 29 32  1  0  0  0
 30 31  1  0  0  0
 18 19  2  0  0  0
 19 20  1  0  0  0
 20 21  1  0  0  0
M  END
> <minimizedAffinity>
-12.01921

$$$$
