CHEMBL3694682


 36 39  0  0  0  0  0  0  0  0999 V2000
  -22.7794    0.5127  -13.8259 C   0  0  0  0  0  0  0  0  0  0  0  0
  -21.5751   -0.2890  -14.1058 C   0  0  0  0  0  0  0  0  0  0  0  0
  -20.4360    0.3004  -14.5050 C   0  0  0  0  0  0  0  0  0  0  0  0
  -20.3849    1.6875  -14.6329 N   0  0  0  0  0  0  0  0  0  0  0  0
  -19.3470    2.5413  -14.9937 C   0  0  0  0  0  0  0  0  0  0  0  0
  -19.9460    3.7970  -14.9900 C   0  0  0  0  0  0  0  0  0  0  0  0
  -21.2596    3.7558  -14.6261 N   0  0  0  0  0  0  0  0  0  0  0  0
  -21.5075    2.4867  -14.4043 C   0  0  0  0  0  0  0  0  0  0  0  0
  -22.7157    1.8545  -13.9924 C   0  0  0  0  0  0  0  0  0  0  0  0
  -26.3974   -1.1894  -12.5071 C   0  0  0  0  0  0  0  0  0  0  0  0
  -25.8466   -1.5149  -13.7271 C   0  0  0  0  0  0  0  0  0  0  0  0
  -24.6817   -0.9928  -14.1832 N   0  0  0  0  0  0  0  0  0  0  0  0
  -24.0532   -0.1129  -13.3765 C   0  0  0  0  0  0  0  0  0  0  0  0
  -24.5122    0.2625  -12.1652 N   0  0  0  0  0  0  0  0  0  0  0  0
  -25.6765   -0.2873  -11.7576 C   0  0  0  0  0  0  0  0  0  0  0  0
  -27.6705   -1.7749  -12.0700 C   0  0  0  0  0  0  0  0  0  0  0  0
  -28.3719   -2.4719  -12.7794 O   0  0  0  0  0  0  0  0  0  0  0  0
  -27.4701   -2.3362   -9.8026 C   0  0  0  0  0  0  0  0  0  0  0  0
  -27.9295   -1.4131  -10.7898 O   0  0  0  0  0  0  0  0  0  0  0  0
  -17.9590    2.2072  -15.3628 C   0  0  0  0  0  0  0  0  0  0  0  0
  -17.2211    3.1816  -16.0547 C   0  0  0  0  0  0  0  0  0  0  0  0
  -15.8942    2.9671  -16.4029 C   0  0  0  0  0  0  0  0  0  0  0  0
  -15.2728    1.7729  -16.0583 C   0  0  0  0  0  0  0  0  0  0  0  0
  -15.9509    0.7887  -15.3355 C   0  0  0  0  0  0  0  0  0  0  0  0
  -17.3044    1.0097  -15.0026 C   0  0  0  0  0  0  0  0  0  0  0  0
  -15.3167   -0.4134  -14.9169 N   0  0  0  0  0  0  0  0  0  0  0  0
  -15.2765   -0.8920  -13.6222 C   0  0  0  0  0  0  0  0  0  0  0  0
  -15.8011   -0.3937  -12.6340 O   0  0  0  0  0  0  0  0  0  0  0  0
  -14.5155   -2.0323  -13.4863 N   0  0  0  0  0  0  0  0  0  0  0  0
  -14.9147   -0.9935  -15.6367 H   0  0  0  0  0  0  0  0  0  0  0  0
  -14.4381   -2.6459  -14.2842 H   0  0  0  0  0  0  0  0  0  0  0  0
  -14.4404   -2.6435  -12.1486 C   0  0  0  0  0  0  0  0  0  0  0  0
  -15.6107   -3.5582  -11.7471 C   0  0  0  0  0  0  0  0  0  0  0  0
  -15.1899   -4.7689  -11.3153 F   0  0  0  0  0  0  0  0  0  0  0  0
  -16.2982   -2.9961  -10.7197 F   0  0  0  0  0  0  0  0  0  0  0  0
  -16.4882   -3.7487  -12.7540 F   0  0  0  0  0  0  0  0  0  0  0  0
 18 19  1  0  0  0
 19 16  1  0  0  0
 16 17  2  0  0  0
 16 10  1  0  0  0
 10 11  1  0  0  0
 10 15  2  0  0  0
 11 12  2  0  0  0
 12 13  1  0  0  0
 13  1  1  0  0  0
 13 14  2  0  0  0
  1  2  1  0  0  0
  1  9  2  0  0  0
  2  3  2  0  0  0
  3  4  1  0  0  0
  4  5  1  0  0  0
  4  8  1  0  0  0
  5 20  1  0  0  0
  5  6  2  0  0  0
 20 21  1  0  0  0
 20 25  2  0  0  0
 21 22  2  0  0  0
 22 23  1  0  0  0
 23 24  2  0  0  0
 24 26  1  0  0  0
 24 25  1  0  0  0
 26 27  1  0  0  0
 26 30  1  0  0  0
 27 28  2  0  0  0
 27 29  1  0  0  0
 29 32  1  0  0  0
 29 31  1  0  0  0
 32 33  1  0  0  0
 33 34  1  0  0  0
 33 35  1  0  0  0
 33 36  1  0  0  0
  6  7  1  0  0  0
  7  8  2  0  0  0
  8  9  1  0  0  0
 14 15  1  0  0  0
M  END
> <minimizedAffinity>
-9.41685

$$$$
