CHEMBL3604468


 27 28  0  0  0  0  0  0  0  0999 V2000
  -29.8843   -4.0338   -5.8628 C   0  0  0  0  0  0  0  0  0  0  0  0
  -30.1324   -5.0440   -6.7346 N   0  0  0  0  0  0  0  0  0  0  0  0
  -30.4582   -6.2301   -6.1917 C   0  0  0  0  0  0  0  0  0  0  0  0
  -30.4649   -6.4578   -4.8646 N   0  0  0  0  0  0  0  0  0  0  0  0
  -30.2179   -5.4290   -4.0438 C   0  0  0  0  0  0  0  0  0  0  0  0
  -29.9570   -4.1631   -4.4894 C   0  0  0  0  0  0  0  0  0  0  0  0
  -29.7310   -2.7477   -3.2723 Br  0  0  0  0  0  0  0  0  0  0  0  0
  -30.8195   -7.2820   -7.0343 N   0  0  0  0  0  0  0  0  0  0  0  0
  -31.6865   -7.7233   -6.7594 H   0  0  0  0  0  0  0  0  0  0  0  0
  -29.9572   -8.0533   -7.8401 C   0  0  0  0  0  0  0  0  0  0  0  0
  -28.6106   -7.7002   -8.0261 C   0  0  0  0  0  0  0  0  0  0  0  0
  -27.7863   -8.4071   -8.9031 C   0  0  0  0  0  0  0  0  0  0  0  0
  -28.2970   -9.4824   -9.6296 C   0  0  0  0  0  0  0  0  0  0  0  0
  -29.6316   -9.8571   -9.4463 C   0  0  0  0  0  0  0  0  0  0  0  0
  -30.4507   -9.1566   -8.5475 C   0  0  0  0  0  0  0  0  0  0  0  0
  -27.2283  -10.3225  -10.8208 S   0  0  0  0  0  0  0  0  0  0  0  0
  -26.7358   -8.8966  -11.5050 N   0  0  0  0  0  0  0  0  0  0  0  0
  -26.0660  -10.9968  -10.0187 O   0  0  0  0  0  0  0  0  0  0  0  0
  -27.3646   -8.4498  -12.1637 H   0  0  0  0  0  0  0  0  0  0  0  0
  -25.8130   -8.9253  -11.9292 H   0  0  0  0  0  0  0  0  0  0  0  0
  -29.5706   -2.7746   -6.3464 O   0  0  0  0  0  0  0  0  0  0  0  0
  -28.2343   -2.5912   -6.8411 C   0  0  0  0  0  0  0  0  0  0  0  0
  -27.7527   -1.1589   -6.5804 C   0  0  0  0  0  0  0  0  0  0  0  0
  -27.5072   -1.8020   -9.1857 C   0  0  0  0  0  0  0  0  0  0  0  0
  -28.2674   -2.8440   -8.3740 C   0  0  0  0  0  0  0  0  0  0  0  0
  -27.7105   -4.1266   -8.6886 O   0  0  0  0  0  0  0  0  0  0  0  0
  -26.7947   -4.1251   -8.3543 H   0  0  0  0  0  0  0  0  0  0  0  0
 24 25  1  0  0  0
 25 26  1  0  0  0
 25 22  1  0  0  0
 26 27  1  0  0  0
 22 23  1  0  0  0
 22 21  1  0  0  0
 21  1  1  0  0  0
  1  2  1  0  0  0
  1  6  2  0  0  0
  2  3  2  0  0  0
  3  8  1  0  0  0
  3  4  1  0  0  0
  8 10  1  0  0  0
  8  9  1  0  0  0
 10 11  1  0  0  0
 10 15  2  0  0  0
 11 12  2  0  0  0
 12 13  1  0  0  0
 13 16  1  0  0  0
 13 14  2  0  0  0
 16 17  1  0  0  0
 16 18  1  0  0  0
 17 19  1  0  0  0
 17 20  1  0  0  0
 14 15  1  0  0  0
  4  5  2  0  0  0
  5  6  1  0  0  0
  6  7  1  0  0  0
M  CHG 1  16   1
M  CHG 1  18  -1
M  END
> <minimizedAffinity>
-7.73882

$$$$
