CHEMBL3671504


 31 33  0  0  0  0  0  0  0  0999 V2000
  -27.5277   -9.8215   -6.3370 C   0  0  0  0  0  0  0  0  0  0  0  0
  -28.7893   -9.4492   -6.8417 C   0  0  0  0  0  0  0  0  0  0  0  0
  -29.5756   -8.4623   -6.2723 C   0  0  0  0  0  0  0  0  0  0  0  0
  -30.7372   -8.1642   -6.8578 N   0  0  0  0  0  0  0  0  0  0  0  0
  -31.4438   -7.1793   -6.2998 C   0  0  0  0  0  0  0  0  0  0  0  0
  -31.0843   -6.4672   -5.2356 N   0  0  0  0  0  0  0  0  0  0  0  0
  -29.9070   -6.7747   -4.6573 C   0  0  0  0  0  0  0  0  0  0  0  0
  -29.1083   -7.8213   -5.1335 C   0  0  0  0  0  0  0  0  0  0  0  0
  -27.8659   -8.1989   -4.5888 C   0  0  0  0  0  0  0  0  0  0  0  0
  -27.0303   -9.1414   -5.2057 C   0  0  0  0  0  0  0  0  0  0  0  0
  -25.7115   -9.3521   -4.7149 N   0  0  0  0  0  0  0  0  0  0  0  0
  -25.3908  -10.2547   -3.7053 C   0  0  0  0  0  0  0  0  0  0  0  0
  -26.1739  -10.9783   -3.0976 O   0  0  0  0  0  0  0  0  0  0  0  0
  -25.0155   -8.6865   -5.0309 H   0  0  0  0  0  0  0  0  0  0  0  0
  -23.9560  -10.2848   -3.3285 C   0  0  0  0  0  0  0  0  0  0  0  0
  -23.4715  -11.3457   -2.6586 C   0  0  0  0  0  0  0  0  0  0  0  0
  -29.4295   -5.9354   -3.6207 N   0  0  0  0  0  0  0  0  0  0  0  0
  -29.8698   -6.1229   -2.7248 H   0  0  0  0  0  0  0  0  0  0  0  0
  -29.0957   -4.5782   -3.8067 C   0  0  0  0  0  0  0  0  0  0  0  0
  -27.8536   -4.2199   -4.3492 C   0  0  0  0  0  0  0  0  0  0  0  0
  -27.5749   -2.8967   -4.6868 C   0  0  0  0  0  0  0  0  0  0  0  0
  -28.5377   -1.9159   -4.4666 C   0  0  0  0  0  0  0  0  0  0  0  0
  -28.1948   -0.1399   -5.0140 Br  0  0  0  0  0  0  0  0  0  0  0  0
  -29.7563   -2.2372   -3.8730 C   0  0  0  0  0  0  0  0  0  0  0  0
  -30.0230   -3.5626   -3.5433 C   0  0  0  0  0  0  0  0  0  0  0  0
  -31.2110   -3.8757   -3.0053 F   0  0  0  0  0  0  0  0  0  0  0  0
  -26.7581  -10.8128   -6.9288 O   0  0  0  0  0  0  0  0  0  0  0  0
  -27.2887  -11.3039   -8.1824 C   0  0  0  0  0  0  0  0  0  0  0  0
  -26.3812  -10.9916   -9.3710 C   0  0  0  0  0  0  0  0  0  0  0  0
  -28.4746  -10.7147  -10.7591 C   0  0  0  0  0  0  0  0  0  0  0  0
  -27.1818  -10.4404  -10.5299 C   0  0  0  0  0  0  0  0  0  0  0  0
 30 31  2  0  0  0
 31 29  1  0  0  0
 29 28  1  0  0  0
 28 27  1  0  0  0
 27  1  1  0  0  0
  1  2  1  0  0  0
  1 10  2  0  0  0
  2  3  2  0  0  0
  3  4  1  0  0  0
  3  8  1  0  0  0
  4  5  2  0  0  0
  5  6  1  0  0  0
  6  7  2  0  0  0
  7 17  1  0  0  0
  7  8  1  0  0  0
 17 19  1  0  0  0
 17 18  1  0  0  0
 19 20  1  0  0  0
 19 25  2  0  0  0
 20 21  2  0  0  0
 21 22  1  0  0  0
 22 23  1  0  0  0
 22 24  2  0  0  0
 24 25  1  0  0  0
 25 26  1  0  0  0
  8  9  2  0  0  0
  9 10  1  0  0  0
 10 11  1  0  0  0
 11 12  1  0  0  0
 11 14  1  0  0  0
 12 13  2  0  0  0
 12 15  1  0  0  0
 15 16  2  0  0  0
M  END
> <minimizedAffinity>
-7.39779

$$$$
