CHEMBL189059


 42 45  0  0  0  0  0  0  0  0999 V2000
  -29.5400   -8.2338   -6.7707 C   0  0  0  0  0  0  0  0  0  0  0  0
  -29.8841   -7.1423   -7.5882 C   0  0  0  0  0  0  0  0  0  0  0  0
  -29.4990   -5.8521   -7.2593 C   0  0  0  0  0  0  0  0  0  0  0  0
  -29.8125   -4.7593   -8.0504 C   0  0  0  0  0  0  0  0  0  0  0  0
  -29.4569   -3.5107   -7.7489 N   0  0  0  0  0  0  0  0  0  0  0  0
  -28.6766   -3.3579   -6.6755 C   0  0  0  0  0  0  0  0  0  0  0  0
  -28.3433   -4.3531   -5.8376 N   0  0  0  0  0  0  0  0  0  0  0  0
  -28.7730   -5.5991   -6.1000 C   0  0  0  0  0  0  0  0  0  0  0  0
  -28.5112   -6.6253   -5.2520 N   0  0  0  0  0  0  0  0  0  0  0  0
  -28.8344   -7.9105   -5.5970 C   0  0  0  0  0  0  0  0  0  0  0  0
  -31.9463  -11.0932   -7.4922 C   0  0  0  0  0  0  0  0  0  0  0  0
  -31.1321  -11.9704   -8.2024 C   0  0  0  0  0  0  0  0  0  0  0  0
  -29.7934  -11.6569   -8.4114 C   0  0  0  0  0  0  0  0  0  0  0  0
  -29.2617  -10.4898   -7.8591 C   0  0  0  0  0  0  0  0  0  0  0  0
  -30.0642   -9.5677   -7.1571 C   0  0  0  0  0  0  0  0  0  0  0  0
  -31.4104   -9.9113   -6.9783 C   0  0  0  0  0  0  0  0  0  0  0  0
  -33.6545  -12.2111   -6.2955 C   0  0  0  0  0  0  0  0  0  0  0  0
  -33.2878  -11.2438   -7.2664 O   0  0  0  0  0  0  0  0  0  0  0  0
  -28.9218  -12.4103   -9.1501 O   0  0  0  0  0  0  0  0  0  0  0  0
  -28.1926  -11.6931  -10.1438 C   0  0  0  0  0  0  0  0  0  0  0  0
  -28.5236   -8.9194   -4.6296 N   0  0  0  0  0  0  0  0  0  0  0  0
  -27.2978   -9.5677   -4.7198 C   0  0  0  0  0  0  0  0  0  0  0  0
  -26.4807   -9.3533   -5.6191 O   0  0  0  0  0  0  0  0  0  0  0  0
  -27.0769  -10.4659   -3.6839 N   0  0  0  0  0  0  0  0  0  0  0  0
  -28.6442   -8.5736   -3.6884 H   0  0  0  0  0  0  0  0  0  0  0  0
  -27.9182  -10.8988   -3.3186 H   0  0  0  0  0  0  0  0  0  0  0  0
  -25.7972  -11.2181   -3.5069 C   0  0  0  0  0  0  0  0  0  0  0  0
  -25.5123  -12.0692   -4.7583 C   0  0  0  0  0  0  0  0  0  0  0  0
  -24.5962  -10.2562   -3.3039 C   0  0  0  0  0  0  0  0  0  0  0  0
  -25.8264  -12.1454   -2.2820 C   0  0  0  0  0  0  0  0  0  0  0  0
  -28.1956   -2.0793   -6.5296 N   0  0  0  0  0  0  0  0  0  0  0  0
  -27.6008   -2.0000   -5.7163 H   0  0  0  0  0  0  0  0  0  0  0  0
  -27.9530   -1.2361   -7.6716 C   0  0  0  0  0  0  0  0  0  0  0  0
  -27.1800   -2.0510   -8.7220 C   0  0  0  0  0  0  0  0  0  0  0  0
  -27.5363   -1.5978  -10.1437 C   0  0  0  0  0  0  0  0  0  0  0  0
  -26.5440   -1.9628  -11.1709 N   0  0  0  0  0  0  0  0  0  0  0  0
  -26.7986   -1.3207  -12.4741 C   0  0  0  0  0  0  0  0  0  0  0  0
  -25.7128   -1.6663  -13.5204 C   0  0  0  0  0  0  0  0  0  0  0  0
  -24.3333   -1.3404  -13.1136 N   0  0  0  0  0  0  0  0  0  0  0  0
  -24.0902    0.0993  -13.1463 C   0  0  0  0  0  0  0  0  0  0  0  0
  -24.0863   -1.9104  -11.7734 C   0  0  0  0  0  0  0  0  0  0  0  0
  -25.1790   -1.6102  -10.7154 C   0  0  0  0  0  0  0  0  0  0  0  0
 17 18  1  0  0  0
 18 11  1  0  0  0
 11 12  1  0  0  0
 11 16  2  0  0  0
 12 13  2  0  0  0
 13 19  1  0  0  0
 13 14  1  0  0  0
 19 20  1  0  0  0
 14 15  2  0  0  0
 15  1  1  0  0  0
 15 16  1  0  0  0
  1  2  1  0  0  0
  1 10  2  0  0  0
  2  3  2  0  0  0
  3  4  1  0  0  0
  3  8  1  0  0  0
  4  5  2  0  0  0
  5  6  1  0  0  0
  6 31  1  0  0  0
  6  7  2  0  0  0
 31 33  1  0  0  0
 31 32  1  0  0  0
 33 34  1  0  0  0
 34 35  1  0  0  0
 35 36  1  0  0  0
 36 37  1  0  0  0
 36 42  1  0  0  0
 37 38  1  0  0  0
 38 39  1  0  0  0
 39 40  1  0  0  0
 39 41  1  0  0  0
 41 42  1  0  0  0
  7  8  1  0  0  0
  8  9  2  0  0  0
  9 10  1  0  0  0
 10 21  1  0  0  0
 21 22  1  0  0  0
 21 25  1  0  0  0
 22 23  2  0  0  0
 22 24  1  0  0  0
 24 27  1  0  0  0
 24 26  1  0  0  0
 27 28  1  0  0  0
 27 29  1  0  0  0
 27 30  1  0  0  0
M  END
> <minimizedAffinity>
-7.74560

$$$$
