CHEMBL3775672


 23 25  0  0  0  0  0  0  0  0999 V2000
  -12.6156    2.9947  -15.0628 C   0  0  0  0  0  0  0  0  0  0  0  0
  -12.9315    2.1745  -13.9673 C   0  0  0  0  0  0  0  0  0  0  0  0
  -14.1172    1.4638  -13.8863 C   0  0  0  0  0  0  0  0  0  0  0  0
  -14.2863    0.6150  -12.8679 N   0  0  0  0  0  0  0  0  0  0  0  0
  -15.4076   -0.1143  -12.8679 C   0  0  0  0  0  0  0  0  0  0  0  0
  -16.3845   -0.0468  -13.7718 N   0  0  0  0  0  0  0  0  0  0  0  0
  -16.2130    0.8647  -14.7512 C   0  0  0  0  0  0  0  0  0  0  0  0
  -15.0669    1.6505  -14.8889 C   0  0  0  0  0  0  0  0  0  0  0  0
  -14.8162    2.5707  -15.9325 C   0  0  0  0  0  0  0  0  0  0  0  0
  -13.5888    3.2357  -16.0388 C   0  0  0  0  0  0  0  0  0  0  0  0
  -11.1450    4.6827  -14.3033 C   0  0  0  0  0  0  0  0  0  0  0  0
  -11.3748    3.5656  -15.1690 O   0  0  0  0  0  0  0  0  0  0  0  0
  -13.5286    4.0286  -17.1490 O   0  0  0  0  0  0  0  0  0  0  0  0
  -14.6736    4.7685  -17.5383 C   0  0  0  0  0  0  0  0  0  0  0  0
  -17.1961    0.9975  -15.7320 O   0  0  0  0  0  0  0  0  0  0  0  0
  -18.3870    1.5971  -15.3868 C   0  0  0  0  0  0  0  0  0  0  0  0
  -18.5765    2.9808  -15.3983 C   0  0  0  0  0  0  0  0  0  0  0  0
  -19.8070    3.5221  -15.0284 C   0  0  0  0  0  0  0  0  0  0  0  0
  -20.8693    2.6785  -14.6964 C   0  0  0  0  0  0  0  0  0  0  0  0
  -20.6854    1.2982  -14.7450 C   0  0  0  0  0  0  0  0  0  0  0  0
  -21.7101    0.4430  -14.4553 O   0  0  0  0  0  0  0  0  0  0  0  0
  -19.4553    0.7494  -15.0894 C   0  0  0  0  0  0  0  0  0  0  0  0
  -22.5038    0.9694  -14.2638 H   0  0  0  0  0  0  0  0  0  0  0  0
 11 12  1  0  0  0
 12  1  1  0  0  0
  1  2  1  0  0  0
  1 10  2  0  0  0
  2  3  2  0  0  0
  3  4  1  0  0  0
  3  8  1  0  0  0
  4  5  2  0  0  0
  5  6  1  0  0  0
  6  7  2  0  0  0
  7 15  1  0  0  0
  7  8  1  0  0  0
 15 16  1  0  0  0
 16 17  1  0  0  0
 16 22  2  0  0  0
 17 18  2  0  0  0
 18 19  1  0  0  0
 19 20  2  0  0  0
 20 21  1  0  0  0
 20 22  1  0  0  0
 21 23  1  0  0  0
  8  9  2  0  0  0
  9 10  1  0  0  0
 10 13  1  0  0  0
 13 14  1  0  0  0
M  END
> <minimizedAffinity>
-6.81163

$$$$
