CHEMBL330608


 35 37  0  0  0  0  0  0  0  0999 V2000
  -13.1352   -0.6354  -14.3408 C   0  0  0  0  0  0  0  0  0  0  0  0
  -12.5985    0.1596  -13.4048 C   0  0  0  0  0  0  0  0  0  0  0  0
  -11.6791   -0.2435  -12.4522 O   0  0  0  0  0  0  0  0  0  0  0  0
  -13.0210    1.5292  -13.2143 C   0  0  0  0  0  0  0  0  0  0  0  0
  -12.6597    2.1115  -12.0208 O   0  0  0  0  0  0  0  0  0  0  0  0
  -13.7629    2.1933  -14.0923 C   0  0  0  0  0  0  0  0  0  0  0  0
  -14.0434    1.5571  -15.4105 C   0  0  0  0  0  0  0  0  0  0  0  0
  -14.4187    2.1093  -16.5037 N   0  0  0  0  0  0  0  0  0  0  0  0
  -13.8162    0.0446  -15.4720 C   0  0  0  0  0  0  0  0  0  0  0  0
  -14.1101   -0.5476  -16.5020 O   0  0  0  0  0  0  0  0  0  0  0  0
  -11.1471   -0.9782  -12.8196 H   0  0  0  0  0  0  0  0  0  0  0  0
  -12.0979    1.4471  -11.5625 H   0  0  0  0  0  0  0  0  0  0  0  0
  -12.9468   -2.1198  -14.4893 C   0  0  0  0  0  0  0  0  0  0  0  0
  -14.3026   -4.4566   -9.4089 C   0  0  0  0  0  0  0  0  0  0  0  0
  -13.6633   -5.2864  -10.4997 C   0  0  0  0  0  0  0  0  0  0  0  0
  -12.3297   -5.5067  -10.3564 C   0  0  0  0  0  0  0  0  0  0  0  0
  -11.4733   -4.3334  -10.7973 C   0  0  0  0  0  0  0  0  0  0  0  0
  -11.8215   -3.9377  -12.2491 C   0  0  0  0  0  0  0  0  0  0  0  0
  -13.3519   -3.8382  -12.4664 C   0  0  0  0  0  0  0  0  0  0  0  0
  -14.1725   -5.1199  -11.9731 C   0  0  0  0  0  0  0  0  0  0  0  0
  -13.8500   -6.4862  -12.6579 C   0  0  0  0  0  0  0  0  0  0  0  0
  -15.7377   -4.9514  -12.1661 C   0  0  0  0  0  0  0  0  0  0  0  0
  -16.2498   -3.9734  -13.2581 C   0  0  0  0  0  0  0  0  0  0  0  0
  -15.3506   -2.7392  -13.4542 C   0  0  0  0  0  0  0  0  0  0  0  0
  -15.5860   -1.9002  -12.1640 C   0  0  0  0  0  0  0  0  0  0  0  0
  -13.8723   -3.2178  -13.7973 C   0  0  0  0  0  0  0  0  0  0  0  0
  -13.8943   -4.2870  -14.9427 C   0  0  0  0  0  0  0  0  0  0  0  0
  -14.5838    3.5722  -16.5554 C   0  0  0  0  0  0  0  0  0  0  0  0
  -16.0353    3.8869  -16.2369 C   0  0  0  0  0  0  0  0  0  0  0  0
  -16.9765    3.1506  -16.5240 O   0  0  0  0  0  0  0  0  0  0  0  0
  -16.1909    5.0957  -15.6454 O   0  0  0  0  0  0  0  0  0  0  0  0
  -15.2934    5.4940  -15.5182 H   0  0  0  0  0  0  0  0  0  0  0  0
  -14.2273    4.0523  -17.9641 C   0  0  0  0  0  0  0  0  0  0  0  0
  -15.3359    4.6750  -18.6121 O   0  0  0  0  0  0  0  0  0  0  0  0
  -16.0231    3.9891  -18.7046 H   0  0  0  0  0  0  0  0  0  0  0  0
 14 15  1  0  0  0
 15 16  2  0  0  0
 15 20  1  0  0  0
 16 17  1  0  0  0
 17 18  1  0  0  0
 18 19  1  0  0  0
 19 20  1  0  0  0
 19 26  1  0  0  0
 20 22  1  0  0  0
 20 21  1  0  0  0
 22 23  1  0  0  0
 23 24  1  0  0  0
 24 26  1  0  0  0
 24 25  1  0  0  0
 26 13  1  0  0  0
 26 27  1  0  0  0
 13  1  1  0  0  0
  1  2  2  0  0  0
  1  9  1  0  0  0
  2  3  1  0  0  0
  2  4  1  0  0  0
  3 11  1  0  0  0
  4  5  1  0  0  0
  4  6  2  0  0  0
  5 12  1  0  0  0
  6  7  1  0  0  0
  7  8  2  0  0  0
  7  9  1  0  0  0
  8 28  1  0  0  0
 28 33  1  0  0  0
 28 29  1  0  0  0
 33 34  1  0  0  0
 34 35  1  0  0  0
 29 30  2  0  0  0
 29 31  1  0  0  0
 31 32  1  0  0  0
  9 10  2  0  0  0
M  END
> <minimizedAffinity>
-7.41411

$$$$
