CHEMBL3125891


 40 44  0  0  0  0  0  0  0  0999 V2000
  -19.4391    1.9482  -15.1490 C   0  0  0  0  0  0  0  0  0  0  0  0
  -20.0900    3.1341  -14.7932 C   0  0  0  0  0  0  0  0  0  0  0  0
  -21.3802    3.1173  -14.2825 C   0  0  0  0  0  0  0  0  0  0  0  0
  -22.0378    1.9062  -14.1135 C   0  0  0  0  0  0  0  0  0  0  0  0
  -21.4749    0.7054  -14.5772 C   0  0  0  0  0  0  0  0  0  0  0  0
  -20.1595    0.7307  -15.0865 C   0  0  0  0  0  0  0  0  0  0  0  0
  -17.0100    1.5506  -14.7395 C   0  0  0  0  0  0  0  0  0  0  0  0
  -17.0882    1.1520  -13.5800 O   0  0  0  0  0  0  0  0  0  0  0  0
  -18.0721    1.9553  -15.5503 N   0  0  0  0  0  0  0  0  0  0  0  0
  -17.8892    2.0635  -16.5393 H   0  0  0  0  0  0  0  0  0  0  0  0
  -13.2292    1.3885  -15.0015 C   0  0  0  0  0  0  0  0  0  0  0  0
  -13.0750    1.2688  -16.3959 C   0  0  0  0  0  0  0  0  0  0  0  0
  -14.1831    1.2773  -17.2562 C   0  0  0  0  0  0  0  0  0  0  0  0
  -15.4801    1.3744  -16.7481 C   0  0  0  0  0  0  0  0  0  0  0  0
  -15.6636    1.4817  -15.3725 C   0  0  0  0  0  0  0  0  0  0  0  0
  -14.5430    1.5346  -14.5194 C   0  0  0  0  0  0  0  0  0  0  0  0
  -11.5096   -0.1139  -13.7914 C   0  0  0  0  0  0  0  0  0  0  0  0
  -12.0074    1.3256  -14.0595 C   0  0  0  0  0  0  0  0  0  0  0  0
  -10.8201    2.0864  -14.6951 C   0  0  0  0  0  0  0  0  0  0  0  0
  -12.3220    1.9478  -12.7449 C   0  0  0  0  0  0  0  0  0  0  0  0
  -12.5667    2.4589  -11.7308 N   0  0  0  0  0  0  0  0  0  0  0  0
  -22.1773   -0.5136  -14.5455 O   0  0  0  0  0  0  0  0  0  0  0  0
  -23.1154   -0.6967  -13.5166 C   0  0  0  0  0  0  0  0  0  0  0  0
  -22.6802   -0.5700  -12.2001 C   0  0  0  0  0  0  0  0  0  0  0  0
  -23.4324   -1.0724  -11.1493 C   0  0  0  0  0  0  0  0  0  0  0  0
  -24.7438   -1.4978  -11.3818 C   0  0  0  0  0  0  0  0  0  0  0  0
  -25.5557   -1.9795  -10.3794 N   0  0  0  0  0  0  0  0  0  0  0  0
  -26.7700   -2.1344  -10.8271 C   0  0  0  0  0  0  0  0  0  0  0  0
  -26.9845   -1.8045  -12.4930 S   0  0  0  0  0  0  0  0  0  0  0  0
  -25.2904   -1.4024  -12.6714 C   0  0  0  0  0  0  0  0  0  0  0  0
  -24.4669   -1.0273  -13.7746 C   0  0  0  0  0  0  0  0  0  0  0  0
  -27.7635   -2.4806   -9.9414 N   0  0  0  0  0  0  0  0  0  0  0  0
  -27.8724   -2.0778   -8.6353 C   0  0  0  0  0  0  0  0  0  0  0  0
  -27.1195   -1.3139   -8.0590 O   0  0  0  0  0  0  0  0  0  0  0  0
  -28.5080   -3.0213  -10.3614 H   0  0  0  0  0  0  0  0  0  0  0  0
  -29.0545   -2.5966   -7.8678 C   0  0  0  0  0  0  0  0  0  0  0  0
  -29.0897   -2.9991   -6.4131 C   0  0  0  0  0  0  0  0  0  0  0  0
  -29.1551   -4.0558   -7.4764 C   0  0  0  0  0  0  0  0  0  0  0  0
  -25.0458   -0.9914  -15.1046 C   0  0  0  0  0  0  0  0  0  0  0  0
  -25.4934   -0.9705  -16.1736 N   0  0  0  0  0  0  0  0  0  0  0  0
 17 18  1  0  0  0
 18 19  1  0  0  0
 18 20  1  0  0  0
 18 11  1  0  0  0
 20 21  3  0  0  0
 11 12  1  0  0  0
 11 16  2  0  0  0
 12 13  2  0  0  0
 13 14  1  0  0  0
 14 15  2  0  0  0
 15  7  1  0  0  0
 15 16  1  0  0  0
  7  8  2  0  0  0
  7  9  1  0  0  0
  9  1  1  0  0  0
  9 10  1  0  0  0
  1  2  1  0  0  0
  1  6  2  0  0  0
  2  3  2  0  0  0
  3  4  1  0  0  0
  4  5  2  0  0  0
  5 22  1  0  0  0
  5  6  1  0  0  0
 22 23  1  0  0  0
 23 24  1  0  0  0
 23 31  2  0  0  0
 24 25  2  0  0  0
 25 26  1  0  0  0
 26 27  1  0  0  0
 26 30  2  0  0  0
 27 28  2  0  0  0
 28 32  1  0  0  0
 28 29  1  0  0  0
 32 33  1  0  0  0
 32 35  1  0  0  0
 33 34  2  0  0  0
 33 36  1  0  0  0
 36 37  1  0  0  0
 36 38  1  0  0  0
 37 38  1  0  0  0
 29 30  1  0  0  0
 30 31  1  0  0  0
 31 39  1  0  0  0
 39 40  3  0  0  0
M  END
> <minimizedAffinity>
-10.31544

$$$$
