CHEMBL3644019


 32 34  0  0  0  0  0  0  0  0999 V2000
  -16.7534    1.3067  -15.1059 C   0  0  0  0  0  0  0  0  0  0  0  0
  -17.9427    1.6066  -14.5215 N   0  0  0  0  0  0  0  0  0  0  0  0
  -18.5063    2.7818  -14.8707 C   0  0  0  0  0  0  0  0  0  0  0  0
  -17.8823    3.6856  -15.6411 N   0  0  0  0  0  0  0  0  0  0  0  0
  -16.7295    3.3391  -16.2178 C   0  0  0  0  0  0  0  0  0  0  0  0
  -16.1387    2.1142  -16.0343 C   0  0  0  0  0  0  0  0  0  0  0  0
  -14.9678    1.7598  -16.8640 C   0  0  0  0  0  0  0  0  0  0  0  0
  -14.6730    2.6136  -17.8812 F   0  0  0  0  0  0  0  0  0  0  0  0
  -13.8279    1.6964  -16.1130 F   0  0  0  0  0  0  0  0  0  0  0  0
  -15.0864    0.5277  -17.4381 F   0  0  0  0  0  0  0  0  0  0  0  0
  -19.8157    3.0779  -14.4629 N   0  0  0  0  0  0  0  0  0  0  0  0
  -19.8206    3.8079  -13.7659 H   0  0  0  0  0  0  0  0  0  0  0  0
  -20.8846    2.1528  -14.3738 C   0  0  0  0  0  0  0  0  0  0  0  0
  -22.1357    2.5052  -13.8377 C   0  0  0  0  0  0  0  0  0  0  0  0
  -23.1476    1.5573  -13.6415 C   0  0  0  0  0  0  0  0  0  0  0  0
  -22.9279    0.2271  -13.9981 C   0  0  0  0  0  0  0  0  0  0  0  0
  -21.7064   -0.1402  -14.5747 C   0  0  0  0  0  0  0  0  0  0  0  0
  -20.7029    0.8240  -14.7812 C   0  0  0  0  0  0  0  0  0  0  0  0
  -24.0618   -1.0203  -13.4246 S   0  0  0  0  0  0  0  0  0  0  0  0
  -24.9660   -1.3150  -14.5255 O   0  0  0  0  0  0  0  0  0  0  0  0
  -23.2727   -2.0798  -12.8307 O   0  0  0  0  0  0  0  0  0  0  0  0
  -25.1154   -0.4152  -12.0848 C   0  0  0  0  0  0  0  0  0  0  0  0
  -25.4368   -1.4285  -11.0236 C   0  0  0  0  0  0  0  0  0  0  0  0
  -26.5121   -0.9389  -11.9566 C   0  0  0  0  0  0  0  0  0  0  0  0
  -16.0953    0.1342  -14.7962 O   0  0  0  0  0  0  0  0  0  0  0  0
  -14.3681    0.7463  -13.1807 C   0  0  0  0  0  0  0  0  0  0  0  0
  -15.6292   -0.0813  -13.4478 C   0  0  0  0  0  0  0  0  0  0  0  0
  -15.3592   -1.6225  -13.3021 C   0  0  0  0  0  0  0  0  0  0  0  0
  -13.9462   -2.0487  -13.7376 C   0  0  0  0  0  0  0  0  0  0  0  0
  -15.6169   -2.1342  -11.8800 C   0  0  0  0  0  0  0  0  0  0  0  0
  -16.2853   -2.3220  -14.1534 O   0  0  0  0  0  0  0  0  0  0  0  0
  -16.1248   -2.0005  -15.0599 H   0  0  0  0  0  0  0  0  0  0  0  0
 26 27  1  0  0  0
 27 25  1  0  0  0
 27 28  1  0  0  0
 25  1  1  0  0  0
  1  2  1  0  0  0
  1  6  2  0  0  0
  2  3  2  0  0  0
  3 11  1  0  0  0
  3  4  1  0  0  0
 11 13  1  0  0  0
 11 12  1  0  0  0
 13 14  1  0  0  0
 13 18  2  0  0  0
 14 15  2  0  0  0
 15 16  1  0  0  0
 16 19  1  0  0  0
 16 17  2  0  0  0
 19 20  2  0  0  0
 19 21  2  0  0  0
 19 22  1  0  0  0
 22 23  1  0  0  0
 22 24  1  0  0  0
 23 24  1  0  0  0
 17 18  1  0  0  0
  4  5  2  0  0  0
  5  6  1  0  0  0
  6  7  1  0  0  0
  7  8  1  0  0  0
  7  9  1  0  0  0
  7 10  1  0  0  0
 28 29  1  0  0  0
 28 30  1  0  0  0
 28 31  1  0  0  0
 31 32  1  0  0  0
M  END
> <minimizedAffinity>
-8.54668

$$$$
