CHEMBL4780189


 80 86  0  0  0  0  0  0  0  0999 V2000
  -30.4028   -5.9310   -7.4080 C   0  0  0  0  0  0  0  0  0  0  0  0
  -30.8317   -7.3590   -7.0947 C   0  0  0  0  0  0  0  0  0  0  0  0
  -32.2559   -7.6080   -7.6037 C   0  0  0  0  0  0  0  0  0  0  0  0
  -32.7412   -8.9900   -7.1814 C   0  0  0  0  0  0  0  0  0  0  0  0
  -32.4698  -10.0666   -8.2398 C   0  0  0  0  0  0  0  0  0  0  0  0
  -30.0406  -10.1610   -8.4482 N   0  0  0  0  0  0  0  0  0  0  0  0
  -31.1644  -10.8376   -8.0488 C   0  0  0  0  0  0  0  0  0  0  0  0
  -31.1132  -11.9316   -7.4932 O   0  0  0  0  0  0  0  0  0  0  0  0
  -30.1582   -9.2990   -8.9516 H   0  0  0  0  0  0  0  0  0  0  0  0
  -28.6764  -10.6874   -8.3807 C   0  0  0  0  0  0  0  0  0  0  0  0
  -26.1772  -10.2633   -5.3807 C   0  0  0  0  0  0  0  0  0  0  0  0
  -24.6562  -10.3523   -5.6213 C   0  0  0  0  0  0  0  0  0  0  0  0
  -24.5227  -11.0546   -6.9500 C   0  0  0  0  0  0  0  0  0  0  0  0
  -24.5356  -12.4648   -6.7487 O   0  0  0  0  0  0  0  0  0  0  0  0
  -25.7414  -10.5757   -7.7373 C   0  0  0  0  0  0  0  0  0  0  0  0
  -26.7648  -10.2538   -6.7388 N   0  0  0  0  0  0  0  0  0  0  0  0
  -28.1319  -10.3864   -6.9342 C   0  0  0  0  0  0  0  0  0  0  0  0
  -28.9055  -10.2876   -5.9738 O   0  0  0  0  0  0  0  0  0  0  0  0
  -25.4593  -12.7614   -6.6413 H   0  0  0  0  0  0  0  0  0  0  0  0
  -27.6684   -8.5379   -4.3452 N   0  0  0  0  0  0  0  0  0  0  0  0
  -26.4055   -9.0785   -4.4139 C   0  0  0  0  0  0  0  0  0  0  0  0
  -25.5321   -8.7146   -3.6203 O   0  0  0  0  0  0  0  0  0  0  0  0
  -28.3554   -8.7710   -5.0636 H   0  0  0  0  0  0  0  0  0  0  0  0
  -27.8885   -7.5224   -3.3470 C   0  0  0  0  0  0  0  0  0  0  0  0
  -28.6812   -3.4077   -4.4750 C   0  0  0  0  0  0  0  0  0  0  0  0
  -29.7461   -4.2642   -4.1402 C   0  0  0  0  0  0  0  0  0  0  0  0
  -29.5283   -5.6082   -3.7942 C   0  0  0  0  0  0  0  0  0  0  0  0
  -28.2383   -6.1389   -3.8122 C   0  0  0  0  0  0  0  0  0  0  0  0
  -27.1745   -5.2891   -4.1451 C   0  0  0  0  0  0  0  0  0  0  0  0
  -27.3919   -3.9484   -4.4608 C   0  0  0  0  0  0  0  0  0  0  0  0
  -31.1135   -1.9329   -6.1333 C   0  0  0  0  0  0  0  0  0  0  0  0
  -29.8948   -1.3360   -5.5172 C   0  0  0  0  0  0  0  0  0  0  0  0
  -29.7418    0.0390   -5.6506 N   0  0  0  0  0  0  0  0  0  0  0  0
  -28.6384    0.4240   -5.0572 C   0  0  0  0  0  0  0  0  0  0  0  0
  -27.7158   -0.8036   -4.3168 S   0  0  0  0  0  0  0  0  0  0  0  0
  -28.8842   -1.9828   -4.8028 C   0  0  0  0  0  0  0  0  0  0  0  0
  -27.8114  -10.0655   -9.5364 C   0  0  0  0  0  0  0  0  0  0  0  0
  -26.6278  -10.9880   -9.8716 C   0  0  0  0  0  0  0  0  0  0  0  0
  -28.6605   -9.9191  -10.8288 C   0  0  0  0  0  0  0  0  0  0  0  0
  -27.2663   -8.6659   -9.1832 C   0  0  0  0  0  0  0  0  0  0  0  0
  -28.8862   -5.7555   -7.3465 C   0  0  0  0  0  0  0  0  0  0  0  0
  -28.3630   -4.8694   -8.4768 C   0  0  0  0  0  0  0  0  0  0  0  0
  -27.8752   -3.5047   -7.9906 C   0  0  0  0  0  0  0  0  0  0  0  0
  -28.0779   -2.4538   -9.0714 C   0  0  0  0  0  0  0  0  0  0  0  0
  -26.7465   -1.9388   -9.5988 C   0  0  0  0  0  0  0  0  0  0  0  0
  -26.8295   -1.7433  -11.0967 C   0  0  0  0  0  0  0  0  0  0  0  0
  -27.8288   -1.4107  -11.7221 O   0  0  0  0  0  0  0  0  0  0  0  0
  -25.6052   -1.8875  -11.7612 N   0  0  0  0  0  0  0  0  0  0  0  0
  -24.4534   -1.9441  -11.0534 N   0  0  0  0  0  0  0  0  0  0  0  0
  -23.6832   -1.1068  -11.7352 C   0  0  0  0  0  0  0  0  0  0  0  0
  -22.6274   -0.5385  -11.1352 N   0  0  0  0  0  0  0  0  0  0  0  0
  -24.1542   -0.9108  -13.0773 C   0  0  0  0  0  0  0  0  0  0  0  0
  -23.7771   -0.2070  -14.2554 C   0  0  0  0  0  0  0  0  0  0  0  0
  -24.5938   -0.3916  -15.4030 C   0  0  0  0  0  0  0  0  0  0  0  0
  -25.7158   -1.2159  -15.4095 C   0  0  0  0  0  0  0  0  0  0  0  0
  -26.1267   -1.8534  -14.2478 C   0  0  0  0  0  0  0  0  0  0  0  0
  -25.3488   -1.6497  -13.0947 C   0  0  0  0  0  0  0  0  0  0  0  0
  -22.5531   -0.7341  -10.1418 H   0  0  0  0  0  0  0  0  0  0  0  0
  -22.4668    0.4465  -11.3288 H   0  0  0  0  0  0  0  0  0  0  0  0
  -22.6255    0.7142  -14.3044 C   0  0  0  0  0  0  0  0  0  0  0  0
  -22.7834    2.0622  -13.9264 C   0  0  0  0  0  0  0  0  0  0  0  0
  -21.7366    2.9690  -14.0443 C   0  0  0  0  0  0  0  0  0  0  0  0
  -20.4781    2.5224  -14.4284 C   0  0  0  0  0  0  0  0  0  0  0  0
  -20.2510    1.1711  -14.6820 C   0  0  0  0  0  0  0  0  0  0  0  0
  -21.3474    0.3093  -14.7337 C   0  0  0  0  0  0  0  0  0  0  0  0
  -18.9487    0.6337  -14.8480 N   0  0  0  0  0  0  0  0  0  0  0  0
  -17.8454    1.4118  -15.1556 C   0  0  0  0  0  0  0  0  0  0  0  0
  -17.8705    2.6387  -15.2725 O   0  0  0  0  0  0  0  0  0  0  0  0
  -16.7015    0.6619  -15.3615 N   0  0  0  0  0  0  0  0  0  0  0  0
  -18.7480   -0.2345  -14.3718 H   0  0  0  0  0  0  0  0  0  0  0  0
  -16.8741   -0.2499  -15.7564 H   0  0  0  0  0  0  0  0  0  0  0  0
  -15.4977    1.2952  -15.7516 C   0  0  0  0  0  0  0  0  0  0  0  0
  -15.3493    1.7016  -17.0746 C   0  0  0  0  0  0  0  0  0  0  0  0
  -14.1969    2.3807  -17.4704 C   0  0  0  0  0  0  0  0  0  0  0  0
  -13.1757    2.6277  -16.5553 C   0  0  0  0  0  0  0  0  0  0  0  0
  -13.2904    2.2160  -15.2212 C   0  0  0  0  0  0  0  0  0  0  0  0
  -14.4630    1.5439  -14.8286 C   0  0  0  0  0  0  0  0  0  0  0  0
  -12.1747    2.5171  -14.2438 C   0  0  0  0  0  0  0  0  0  0  0  0
  -11.6425    3.9461  -14.3907 C   0  0  0  0  0  0  0  0  0  0  0  0
  -12.5825    2.2558  -12.7899 C   0  0  0  0  0  0  0  0  0  0  0  0
 31 32  1  0  0  0
 32 33  1  0  0  0
 32 36  2  0  0  0
 33 34  2  0  0  0
 34 35  1  0  0  0
 35 36  1  0  0  0
 36 25  1  0  0  0
 25 26  1  0  0  0
 25 30  2  0  0  0
 26 27  2  0  0  0
 27 28  1  0  0  0
 28 24  1  0  0  0
 28 29  2  0  0  0
 24 20  1  0  0  0
 20 21  1  0  0  0
 20 23  1  0  0  0
 21 22  2  0  0  0
 11 12  1  0  0  0
 11 16  1  0  0  0
 11 21  1  0  0  0
 12 13  1  0  0  0
 13 14  1  0  0  0
 13 15  1  0  0  0
 14 19  1  0  0  0
 15 16  1  0  0  0
 16 17  1  0  0  0
 17 18  2  0  0  0
 17 10  1  0  0  0
 10  6  1  0  0  0
 10 37  1  0  0  0
  6  7  1  0  0  0
  6  9  1  0  0  0
  7  8  2  0  0  0
  7  5  1  0  0  0
  5  4  1  0  0  0
  4  3  1  0  0  0
  3  2  1  0  0  0
  2  1  1  0  0  0
  1 41  1  0  0  0
 41 42  1  0  0  0
 42 43  1  0  0  0
 43 44  1  0  0  0
 44 45  1  0  0  0
 45 46  1  0  0  0
 46 47  2  0  0  0
 46 48  1  0  0  0
 48 49  1  0  0  0
 48 57  1  0  0  0
 49 50  2  0  0  0
 50 51  1  0  0  0
 50 52  1  0  0  0
 51 58  1  0  0  0
 51 59  1  0  0  0
 52 53  1  0  0  0
 52 57  2  0  0  0
 53 60  1  0  0  0
 53 54  2  0  0  0
 60 61  1  0  0  0
 60 65  2  0  0  0
 61 62  2  0  0  0
 62 63  1  0  0  0
 63 64  2  0  0  0
 64 66  1  0  0  0
 64 65  1  0  0  0
 66 67  1  0  0  0
 66 70  1  0  0  0
 67 68  2  0  0  0
 67 69  1  0  0  0
 69 72  1  0  0  0
 69 71  1  0  0  0
 72 73  1  0  0  0
 72 77  2  0  0  0
 73 74  2  0  0  0
 74 75  1  0  0  0
 75 76  2  0  0  0
 76 78  1  0  0  0
 76 77  1  0  0  0
 78 79  1  0  0  0
 78 80  1  0  0  0
 54 55  1  0  0  0
 55 56  2  0  0  0
 56 57  1  0  0  0
 37 38  1  0  0  0
 37 39  1  0  0  0
 37 40  1  0  0  0
 29 30  1  0  0  0
M  END
> <minimizedAffinity>
-8.67976

$$$$
