CHEMBL3896249


 46 50  0  0  0  0  0  0  0  0999 V2000
  -26.3668  -10.0900   -4.9414 C   0  0  0  0  0  0  0  0  0  0  0  0
  -26.9534  -10.4889   -3.7334 C   0  0  0  0  0  0  0  0  0  0  0  0
  -28.0895   -9.8646   -3.2866 C   0  0  0  0  0  0  0  0  0  0  0  0
  -28.5837   -8.7305   -3.8791 C   0  0  0  0  0  0  0  0  0  0  0  0
  -29.7999   -8.3623   -3.4456 N   0  0  0  0  0  0  0  0  0  0  0  0
  -30.2111   -7.1407   -3.7960 C   0  0  0  0  0  0  0  0  0  0  0  0
  -29.3828   -6.2655   -4.4751 C   0  0  0  0  0  0  0  0  0  0  0  0
  -28.2174   -6.7085   -5.0738 N   0  0  0  0  0  0  0  0  0  0  0  0
  -27.8192   -8.0249   -4.8274 C   0  0  0  0  0  0  0  0  0  0  0  0
  -26.7362   -8.7888   -5.4092 C   0  0  0  0  0  0  0  0  0  0  0  0
  -29.5914   -4.8529   -4.1505 C   0  0  0  0  0  0  0  0  0  0  0  0
  -30.6601   -4.1071   -3.6114 C   0  0  0  0  0  0  0  0  0  0  0  0
  -30.3363   -2.8235   -3.3812 N   0  0  0  0  0  0  0  0  0  0  0  0
  -29.0658   -2.7224   -3.8225 N   0  0  0  0  0  0  0  0  0  0  0  0
  -28.5321   -3.9537   -4.0934 C   0  0  0  0  0  0  0  0  0  0  0  0
  -28.4018   -1.4231   -3.9931 C   0  0  0  0  0  0  0  0  0  0  0  0
  -29.2632   -0.3595   -4.6993 C   0  0  0  0  0  0  0  0  0  0  0  0
  -29.4853   -0.7101   -6.1671 C   0  0  0  0  0  0  0  0  0  0  0  0
  -28.2180   -0.9344   -6.8582 N   0  0  0  0  0  0  0  0  0  0  0  0
  -28.1219   -0.5176   -8.1796 C   0  0  0  0  0  0  0  0  0  0  0  0
  -29.0119    0.1223   -8.7330 O   0  0  0  0  0  0  0  0  0  0  0  0
  -27.3057   -1.8901   -6.2422 C   0  0  0  0  0  0  0  0  0  0  0  0
  -27.0701   -1.5399   -4.7716 C   0  0  0  0  0  0  0  0  0  0  0  0
  -26.9506   -0.8641   -8.7862 O   0  0  0  0  0  0  0  0  0  0  0  0
  -26.9941   -1.6556  -10.0093 C   0  0  0  0  0  0  0  0  0  0  0  0
  -25.6453   -1.6297  -10.7442 C   0  0  0  0  0  0  0  0  0  0  0  0
  -27.2601   -3.1069   -9.5732 C   0  0  0  0  0  0  0  0  0  0  0  0
  -28.1548   -1.2182  -10.9147 C   0  0  0  0  0  0  0  0  0  0  0  0
  -25.6732  -11.1491   -5.6447 N   0  0  0  0  0  0  0  0  0  0  0  0
  -22.0580  -11.3222   -6.6357 C   0  0  0  0  0  0  0  0  0  0  0  0
  -21.4628  -11.7486   -5.4488 C   0  0  0  0  0  0  0  0  0  0  0  0
  -22.2569  -12.0517   -4.3461 C   0  0  0  0  0  0  0  0  0  0  0  0
  -23.6510  -11.9121   -4.4287 C   0  0  0  0  0  0  0  0  0  0  0  0
  -24.2900  -11.4632   -5.5944 C   0  0  0  0  0  0  0  0  0  0  0  0
  -23.4619  -11.1853   -6.7011 C   0  0  0  0  0  0  0  0  0  0  0  0
  -20.4882   -9.8306   -7.6446 C   0  0  0  0  0  0  0  0  0  0  0  0
  -21.3587  -10.9580   -7.7612 O   0  0  0  0  0  0  0  0  0  0  0  0
  -21.7963  -12.4659   -3.1236 O   0  0  0  0  0  0  0  0  0  0  0  0
  -22.5086  -12.0164   -1.9761 C   0  0  0  0  0  0  0  0  0  0  0  0
  -26.3541  -11.2789   -6.9969 C   0  0  0  0  0  0  0  0  0  0  0  0
  -27.9037  -11.4048   -7.0467 C   0  0  0  0  0  0  0  0  0  0  0  0
  -28.6652  -11.0725   -8.2622 N   0  0  0  0  0  0  0  0  0  0  0  0
  -29.6597  -11.0420   -8.0373 H   0  0  0  0  0  0  0  0  0  0  0  0
  -28.2822   -9.8823   -9.0314 C   0  0  0  0  0  0  0  0  0  0  0  0
  -28.4122  -10.0136  -10.5535 C   0  0  0  0  0  0  0  0  0  0  0  0
  -29.1787   -8.7157   -8.5817 C   0  0  0  0  0  0  0  0  0  0  0  0
 36 37  1  0  0  0
 37 30  1  0  0  0
 30 31  1  0  0  0
 30 35  2  0  0  0
 31 32  2  0  0  0
 32 38  1  0  0  0
 32 33  1  0  0  0
 38 39  1  0  0  0
 33 34  2  0  0  0
 34 29  1  0  0  0
 34 35  1  0  0  0
 29 40  1  0  0  0
 29  1  1  0  0  0
 40 41  1  0  0  0
 41 42  1  0  0  0
 42 44  1  0  0  0
 42 43  1  0  0  0
 44 45  1  0  0  0
 44 46  1  0  0  0
  1  2  1  0  0  0
  1 10  2  0  0  0
  2  3  2  0  0  0
  3  4  1  0  0  0
  4  5  1  0  0  0
  4  9  2  0  0  0
  5  6  2  0  0  0
  6  7  1  0  0  0
  7 11  1  0  0  0
  7  8  2  0  0  0
 11 12  1  0  0  0
 11 15  2  0  0  0
 12 13  2  0  0  0
 13 14  1  0  0  0
 14 16  1  0  0  0
 14 15  1  0  0  0
 16 17  1  0  0  0
 16 23  1  0  0  0
 17 18  1  0  0  0
 18 19  1  0  0  0
 19 20  1  0  0  0
 19 22  1  0  0  0
 20 21  2  0  0  0
 20 24  1  0  0  0
 24 25  1  0  0  0
 25 26  1  0  0  0
 25 27  1  0  0  0
 25 28  1  0  0  0
 22 23  1  0  0  0
  8  9  1  0  0  0
  9 10  1  0  0  0
M  END
> <minimizedAffinity>
-6.13336

$$$$
