CHEMBL3288509


 35 39  0  0  0  0  0  0  0  0999 V2000
  -28.8408   -8.9218   -5.8076 C   0  0  0  0  0  0  0  0  0  0  0  0
  -29.7819   -9.6059   -6.5930 C   0  0  0  0  0  0  0  0  0  0  0  0
  -30.7493   -8.8952   -7.2955 C   0  0  0  0  0  0  0  0  0  0  0  0
  -30.7522   -7.5011   -7.2575 C   0  0  0  0  0  0  0  0  0  0  0  0
  -29.8098   -6.7905   -6.4958 C   0  0  0  0  0  0  0  0  0  0  0  0
  -29.8065   -5.3770   -6.4941 C   0  0  0  0  0  0  0  0  0  0  0  0
  -28.9306   -4.6159   -5.6938 C   0  0  0  0  0  0  0  0  0  0  0  0
  -28.0898   -5.3357   -4.8448 C   0  0  0  0  0  0  0  0  0  0  0  0
  -28.0116   -6.7315   -4.8982 C   0  0  0  0  0  0  0  0  0  0  0  0
  -28.8595   -7.4980   -5.7259 C   0  0  0  0  0  0  0  0  0  0  0  0
  -28.9355   -3.1323   -5.7216 C   0  0  0  0  0  0  0  0  0  0  0  0
  -29.4775   -2.4049   -4.6277 C   0  0  0  0  0  0  0  0  0  0  0  0
  -29.5151   -1.0123   -4.5900 C   0  0  0  0  0  0  0  0  0  0  0  0
  -28.9966   -0.2641   -5.6384 C   0  0  0  0  0  0  0  0  0  0  0  0
  -28.4521   -0.9656   -6.7169 C   0  0  0  0  0  0  0  0  0  0  0  0
  -27.8677   -0.4930   -7.8596 N   0  0  0  0  0  0  0  0  0  0  0  0
  -27.4528   -1.4393   -8.7015 N   0  0  0  0  0  0  0  0  0  0  0  0
  -27.7942   -2.5723   -8.0952 C   0  0  0  0  0  0  0  0  0  0  0  0
  -27.5467   -3.7468   -8.6930 N   0  0  0  0  0  0  0  0  0  0  0  0
  -28.4104   -2.3620   -6.8110 C   0  0  0  0  0  0  0  0  0  0  0  0
  -27.7209    0.4742   -8.1204 H   0  0  0  0  0  0  0  0  0  0  0  0
  -27.2110   -3.6944   -9.6472 H   0  0  0  0  0  0  0  0  0  0  0  0
  -28.1515   -4.5427   -8.5255 H   0  0  0  0  0  0  0  0  0  0  0  0
  -26.4847   -9.2486   -5.2720 N   0  0  0  0  0  0  0  0  0  0  0  0
  -27.7799   -9.7100   -5.1115 C   0  0  0  0  0  0  0  0  0  0  0  0
  -28.1177  -10.6803   -4.4432 O   0  0  0  0  0  0  0  0  0  0  0  0
  -26.3330   -8.3855   -5.7823 H   0  0  0  0  0  0  0  0  0  0  0  0
  -21.6241  -11.7249   -3.4794 C   0  0  0  0  0  0  0  0  0  0  0  0
  -22.9086  -11.0976   -3.9346 C   0  0  0  0  0  0  0  0  0  0  0  0
  -23.8310  -10.6127   -3.0001 C   0  0  0  0  0  0  0  0  0  0  0  0
  -25.0176   -9.9988   -3.4176 C   0  0  0  0  0  0  0  0  0  0  0  0
  -25.3084   -9.8597   -4.7746 C   0  0  0  0  0  0  0  0  0  0  0  0
  -24.3911  -10.3691   -5.7019 C   0  0  0  0  0  0  0  0  0  0  0  0
  -24.6473  -10.2582   -7.0154 F   0  0  0  0  0  0  0  0  0  0  0  0
  -23.2009  -10.9758   -5.2955 C   0  0  0  0  0  0  0  0  0  0  0  0
 28 29  1  0  0  0
 29 30  1  0  0  0
 29 35  2  0  0  0
 30 31  2  0  0  0
 31 32  1  0  0  0
 32 24  1  0  0  0
 32 33  2  0  0  0
 24 25  1  0  0  0
 24 27  1  0  0  0
 25 26  2  0  0  0
 25  1  1  0  0  0
  1  2  1  0  0  0
  1 10  2  0  0  0
  2  3  2  0  0  0
  3  4  1  0  0  0
  4  5  2  0  0  0
  5  6  1  0  0  0
  5 10  1  0  0  0
  6  7  2  0  0  0
  7 11  1  0  0  0
  7  8  1  0  0  0
 11 12  1  0  0  0
 11 20  2  0  0  0
 12 13  2  0  0  0
 13 14  1  0  0  0
 14 15  2  0  0  0
 15 16  1  0  0  0
 15 20  1  0  0  0
 16 17  1  0  0  0
 16 21  1  0  0  0
 17 18  2  0  0  0
 18 19  1  0  0  0
 18 20  1  0  0  0
 19 22  1  0  0  0
 19 23  1  0  0  0
  8  9  2  0  0  0
  9 10  1  0  0  0
 33 34  1  0  0  0
 33 35  1  0  0  0
M  END
> <minimizedAffinity>
-10.48312

$$$$
