CHEMBL4799534


 36 39  0  0  0  0  0  0  0  0999 V2000
  -27.2296   -1.9036  -10.2910 C   0  0  0  0  0  0  0  0  0  0  0  0
  -25.9352   -2.4164  -10.3255 C   0  0  0  0  0  0  0  0  0  0  0  0
  -24.9274   -1.7533  -11.0345 C   0  0  0  0  0  0  0  0  0  0  0  0
  -25.1935   -0.5795  -11.7419 C   0  0  0  0  0  0  0  0  0  0  0  0
  -26.5137   -0.1276  -11.8047 C   0  0  0  0  0  0  0  0  0  0  0  0
  -27.5192   -0.7926  -11.0942 C   0  0  0  0  0  0  0  0  0  0  0  0
  -24.1981    0.2074  -12.3769 N   0  0  0  0  0  0  0  0  0  0  0  0
  -23.6717   -0.0273  -13.6344 C   0  0  0  0  0  0  0  0  0  0  0  0
  -24.0439   -0.8870  -14.4229 O   0  0  0  0  0  0  0  0  0  0  0  0
  -23.8407    0.9835  -11.8416 H   0  0  0  0  0  0  0  0  0  0  0  0
  -22.5471    0.8387  -14.0852 C   0  0  0  0  0  0  0  0  0  0  0  0
  -22.5416    2.2351  -13.9906 C   0  0  0  0  0  0  0  0  0  0  0  0
  -21.3943    2.9570  -14.3617 C   0  0  0  0  0  0  0  0  0  0  0  0
  -20.2453    2.2966  -14.8278 C   0  0  0  0  0  0  0  0  0  0  0  0
  -20.2636    0.8997  -14.9299 C   0  0  0  0  0  0  0  0  0  0  0  0
  -21.4035    0.1838  -14.5631 C   0  0  0  0  0  0  0  0  0  0  0  0
  -18.9852    3.0420  -15.1970 C   0  0  0  0  0  0  0  0  0  0  0  0
  -19.1949    4.3540  -15.4933 F   0  0  0  0  0  0  0  0  0  0  0  0
  -18.0609    3.0267  -14.1968 F   0  0  0  0  0  0  0  0  0  0  0  0
  -18.3659    2.5061  -16.2853 F   0  0  0  0  0  0  0  0  0  0  0  0
  -28.2203   -2.5226   -9.5004 N   0  0  0  0  0  0  0  0  0  0  0  0
  -28.3705   -3.4953   -9.7511 H   0  0  0  0  0  0  0  0  0  0  0  0
  -30.0601   -5.3563   -5.6702 C   0  0  0  0  0  0  0  0  0  0  0  0
  -29.5699   -4.1398   -5.1620 C   0  0  0  0  0  0  0  0  0  0  0  0
  -28.9946   -3.1687   -5.9640 C   0  0  0  0  0  0  0  0  0  0  0  0
  -28.6485   -2.0047   -5.4010 N   0  0  0  0  0  0  0  0  0  0  0  0
  -28.1730   -1.0687   -6.2213 C   0  0  0  0  0  0  0  0  0  0  0  0
  -28.0055   -1.1904   -7.5399 N   0  0  0  0  0  0  0  0  0  0  0  0
  -28.3436   -2.3722   -8.0939 C   0  0  0  0  0  0  0  0  0  0  0  0
  -28.8425   -3.4327   -7.3250 C   0  0  0  0  0  0  0  0  0  0  0  0
  -29.2393   -4.6923   -7.8314 C   0  0  0  0  0  0  0  0  0  0  0  0
  -29.8634   -5.6508   -7.0232 C   0  0  0  0  0  0  0  0  0  0  0  0
  -31.5405   -5.6719   -3.8506 C   0  0  0  0  0  0  0  0  0  0  0  0
  -30.7088   -6.2523   -4.8595 O   0  0  0  0  0  0  0  0  0  0  0  0
  -30.2198   -6.7533   -7.7440 O   0  0  0  0  0  0  0  0  0  0  0  0
  -29.2560   -7.7324   -8.0897 C   0  0  0  0  0  0  0  0  0  0  0  0
 33 34  1  0  0  0
 34 23  1  0  0  0
 23 24  1  0  0  0
 23 32  2  0  0  0
 24 25  2  0  0  0
 25 26  1  0  0  0
 25 30  1  0  0  0
 26 27  2  0  0  0
 27 28  1  0  0  0
 28 29  2  0  0  0
 29 21  1  0  0  0
 29 30  1  0  0  0
 21  1  1  0  0  0
 21 22  1  0  0  0
  1  2  1  0  0  0
  1  6  2  0  0  0
  2  3  2  0  0  0
  3  4  1  0  0  0
  4  7  1  0  0  0
  4  5  2  0  0  0
  7  8  1  0  0  0
  7 10  1  0  0  0
  8  9  2  0  0  0
  8 11  1  0  0  0
 11 12  1  0  0  0
 11 16  2  0  0  0
 12 13  2  0  0  0
 13 14  1  0  0  0
 14 17  1  0  0  0
 14 15  2  0  0  0
 17 18  1  0  0  0
 17 19  1  0  0  0
 17 20  1  0  0  0
 15 16  1  0  0  0
  5  6  1  0  0  0
 30 31  2  0  0  0
 31 32  1  0  0  0
 32 35  1  0  0  0
 35 36  1  0  0  0
M  END
> <minimizedAffinity>
-9.93372

$$$$
