CHEMBL2018755


 29 31  0  0  0  0  0  0  0  0999 V2000
  -28.0434   -2.1086   -9.9362 N   0  0  0  0  0  0  0  0  0  0  0  0
  -28.5480   -2.9565  -10.1628 H   0  0  0  0  0  0  0  0  0  0  0  0
  -28.0150   -1.8945   -8.5377 C   0  0  0  0  0  0  0  0  0  0  0  0
  -27.8434   -0.6334   -8.0979 N   0  0  0  0  0  0  0  0  0  0  0  0
  -27.9295   -0.4433   -6.7845 C   0  0  0  0  0  0  0  0  0  0  0  0
  -28.1997   -1.3827   -5.8686 N   0  0  0  0  0  0  0  0  0  0  0  0
  -28.3674   -2.6370   -6.3138 C   0  0  0  0  0  0  0  0  0  0  0  0
  -28.7665   -3.6442   -5.4327 C   0  0  0  0  0  0  0  0  0  0  0  0
  -29.0116   -4.9812   -5.8295 C   0  0  0  0  0  0  0  0  0  0  0  0
  -28.7821   -5.3355   -7.1584 C   0  0  0  0  0  0  0  0  0  0  0  0
  -28.3986   -4.3180   -8.0507 C   0  0  0  0  0  0  0  0  0  0  0  0
  -28.2294   -2.9714   -7.6585 C   0  0  0  0  0  0  0  0  0  0  0  0
  -29.7162   -5.7023   -4.9019 O   0  0  0  0  0  0  0  0  0  0  0  0
  -30.8103   -5.0660   -4.2589 C   0  0  0  0  0  0  0  0  0  0  0  0
  -28.9229   -6.4975   -7.8497 O   0  0  0  0  0  0  0  0  0  0  0  0
  -30.0364   -7.3479   -7.7189 C   0  0  0  0  0  0  0  0  0  0  0  0
  -24.8678   -1.2749  -12.6322 C   0  0  0  0  0  0  0  0  0  0  0  0
  -24.6598   -1.3309  -11.2462 C   0  0  0  0  0  0  0  0  0  0  0  0
  -25.7028   -1.6099  -10.3578 C   0  0  0  0  0  0  0  0  0  0  0  0
  -26.9978   -1.7943  -10.8277 C   0  0  0  0  0  0  0  0  0  0  0  0
  -27.2021   -1.7622  -12.2160 C   0  0  0  0  0  0  0  0  0  0  0  0
  -26.1608   -1.5074  -13.1291 C   0  0  0  0  0  0  0  0  0  0  0  0
  -26.4900   -1.5305  -14.5973 C   0  0  0  0  0  0  0  0  0  0  0  0
  -23.2223    0.2248  -13.7227 C   0  0  0  0  0  0  0  0  0  0  0  0
  -23.4613    1.2722  -13.1429 O   0  0  0  0  0  0  0  0  0  0  0  0
  -23.8201   -0.9925  -13.5268 N   0  0  0  0  0  0  0  0  0  0  0  0
  -23.3888   -1.7427  -14.0426 H   0  0  0  0  0  0  0  0  0  0  0  0
  -21.2031    1.0819  -14.4833 C   0  0  0  0  0  0  0  0  0  0  0  0
  -22.2532    0.1241  -14.6715 O   0  0  0  0  0  0  0  0  0  0  0  0
 28 29  1  0  0  0
 29 24  1  0  0  0
 24 25  2  0  0  0
 24 26  1  0  0  0
 26 17  1  0  0  0
 26 27  1  0  0  0
 17 18  1  0  0  0
 17 22  2  0  0  0
 18 19  2  0  0  0
 19 20  1  0  0  0
 20  1  1  0  0  0
 20 21  2  0  0  0
  1  3  1  0  0  0
  1  2  1  0  0  0
  3  4  1  0  0  0
  3 12  2  0  0  0
  4  5  2  0  0  0
  5  6  1  0  0  0
  6  7  2  0  0  0
  7  8  1  0  0  0
  7 12  1  0  0  0
  8  9  2  0  0  0
  9 13  1  0  0  0
  9 10  1  0  0  0
 13 14  1  0  0  0
 10 15  1  0  0  0
 10 11  2  0  0  0
 15 16  1  0  0  0
 11 12  1  0  0  0
 21 22  1  0  0  0
 22 23  1  0  0  0
M  END
> <minimizedAffinity>
-8.38185

$$$$
