CHEMBL571703


 37 41  0  0  0  0  0  0  0  0999 V2000
  -28.7599   -9.4232   -8.5072 C   0  0  0  0  0  0  0  0  0  0  0  0
  -28.8605   -8.1238   -7.7541 C   0  0  0  0  0  0  0  0  0  0  0  0
  -28.3296   -6.9966   -8.3920 C   0  0  0  0  0  0  0  0  0  0  0  0
  -28.4094   -5.7399   -7.8071 C   0  0  0  0  0  0  0  0  0  0  0  0
  -28.9771   -5.5633   -6.5338 C   0  0  0  0  0  0  0  0  0  0  0  0
  -29.0188   -4.2931   -5.9041 C   0  0  0  0  0  0  0  0  0  0  0  0
  -29.4790   -4.1172   -4.6471 N   0  0  0  0  0  0  0  0  0  0  0  0
  -29.9159   -5.2017   -3.9877 C   0  0  0  0  0  0  0  0  0  0  0  0
  -29.9430   -6.4753   -4.5296 C   0  0  0  0  0  0  0  0  0  0  0  0
  -29.4729   -6.6969   -5.8404 C   0  0  0  0  0  0  0  0  0  0  0  0
  -29.4560   -7.9903   -6.4753 C   0  0  0  0  0  0  0  0  0  0  0  0
  -28.6260   -3.1427   -6.6392 N   0  0  0  0  0  0  0  0  0  0  0  0
  -29.0956   -3.1612   -7.5375 H   0  0  0  0  0  0  0  0  0  0  0  0
  -28.4548   -1.8446   -6.1193 C   0  0  0  0  0  0  0  0  0  0  0  0
  -27.3482   -1.5401   -5.3190 C   0  0  0  0  0  0  0  0  0  0  0  0
  -27.2187   -0.2778   -4.7332 C   0  0  0  0  0  0  0  0  0  0  0  0
  -28.2172    0.6815   -4.9045 C   0  0  0  0  0  0  0  0  0  0  0  0
  -29.3563    0.3873   -5.6641 C   0  0  0  0  0  0  0  0  0  0  0  0
  -29.4576   -0.8755   -6.2661 C   0  0  0  0  0  0  0  0  0  0  0  0
  -30.4786    1.3767   -5.8297 C   0  0  0  0  0  0  0  0  0  0  0  0
  -30.8168    2.0119   -4.6717 F   0  0  0  0  0  0  0  0  0  0  0  0
  -30.1884    2.3633   -6.7220 F   0  0  0  0  0  0  0  0  0  0  0  0
  -31.6268    0.7936   -6.2768 F   0  0  0  0  0  0  0  0  0  0  0  0
  -30.0369   -9.0929   -5.8032 N   0  0  0  0  0  0  0  0  0  0  0  0
  -31.0520   -9.1004   -5.7552 H   0  0  0  0  0  0  0  0  0  0  0  0
  -29.4885  -10.1283   -5.0178 C   0  0  0  0  0  0  0  0  0  0  0  0
  -28.4468   -9.8377   -4.1983 N   0  0  0  0  0  0  0  0  0  0  0  0
  -27.8091  -10.8455   -3.5714 C   0  0  0  0  0  0  0  0  0  0  0  0
  -28.1808  -12.1658   -3.6824 C   0  0  0  0  0  0  0  0  0  0  0  0
  -29.2820  -12.4635   -4.4766 C   0  0  0  0  0  0  0  0  0  0  0  0
  -29.9616  -11.4519   -5.1874 C   0  0  0  0  0  0  0  0  0  0  0  0
  -31.0805  -11.7945   -6.0980 C   0  0  0  0  0  0  0  0  0  0  0  0
  -32.3631  -12.0450   -5.6329 C   0  0  0  0  0  0  0  0  0  0  0  0
  -33.3135  -12.3756   -6.5722 C   0  0  0  0  0  0  0  0  0  0  0  0
  -33.0558  -12.4619   -7.8859 N   0  0  0  0  0  0  0  0  0  0  0  0
  -31.7916  -12.2045   -8.2449 C   0  0  0  0  0  0  0  0  0  0  0  0
  -30.7846  -11.8705   -7.4220 N   0  0  0  0  0  0  0  0  0  0  0  0
  1  2  1  0  0  0
  2  3  1  0  0  0
  2 11  2  0  0  0
  3  4  2  0  0  0
  4  5  1  0  0  0
  5  6  1  0  0  0
  5 10  2  0  0  0
  6 12  1  0  0  0
  6  7  2  0  0  0
 12 14  1  0  0  0
 12 13  1  0  0  0
 14 15  1  0  0  0
 14 19  2  0  0  0
 15 16  2  0  0  0
 16 17  1  0  0  0
 17 18  2  0  0  0
 18 20  1  0  0  0
 18 19  1  0  0  0
 20 21  1  0  0  0
 20 22  1  0  0  0
 20 23  1  0  0  0
  7  8  1  0  0  0
  8  9  2  0  0  0
  9 10  1  0  0  0
 10 11  1  0  0  0
 11 24  1  0  0  0
 24 26  1  0  0  0
 24 25  1  0  0  0
 26 27  1  0  0  0
 26 31  2  0  0  0
 27 28  2  0  0  0
 28 29  1  0  0  0
 29 30  2  0  0  0
 30 31  1  0  0  0
 31 32  1  0  0  0
 32 33  1  0  0  0
 32 37  2  0  0  0
 33 34  2  0  0  0
 34 35  1  0  0  0
 35 36  2  0  0  0
 36 37  1  0  0  0
M  END
> <minimizedAffinity>
-8.77778

$$$$
