CHEMBL4218013


 43 46  0  0  0  0  0  0  0  0999 V2000
  -25.8835   -2.4170  -11.2637 N   0  0  0  0  0  0  0  0  0  0  0  0
  -26.6076   -2.0553  -10.1290 C   0  0  0  0  0  0  0  0  0  0  0  0
  -26.5478   -0.9634   -9.5762 O   0  0  0  0  0  0  0  0  0  0  0  0
  -27.3727   -3.1059   -9.6361 N   0  0  0  0  0  0  0  0  0  0  0  0
  -26.1727   -3.2504  -11.7628 H   0  0  0  0  0  0  0  0  0  0  0  0
  -27.0207   -4.0217   -9.8742 H   0  0  0  0  0  0  0  0  0  0  0  0
  -22.9600   -0.0199  -13.2393 C   0  0  0  0  0  0  0  0  0  0  0  0
  -22.6879   -0.5791  -11.9875 C   0  0  0  0  0  0  0  0  0  0  0  0
  -23.6323   -1.3807  -11.3365 C   0  0  0  0  0  0  0  0  0  0  0  0
  -24.8809   -1.6322  -11.9037 C   0  0  0  0  0  0  0  0  0  0  0  0
  -25.1354   -1.0829  -13.1717 C   0  0  0  0  0  0  0  0  0  0  0  0
  -26.3137   -1.3180  -13.7723 F   0  0  0  0  0  0  0  0  0  0  0  0
  -24.1959   -0.2803  -13.8374 C   0  0  0  0  0  0  0  0  0  0  0  0
  -19.8086    1.1604  -15.0108 C   0  0  0  0  0  0  0  0  0  0  0  0
  -20.6966    0.3886  -14.3529 C   0  0  0  0  0  0  0  0  0  0  0  0
  -21.9609    0.8867  -13.8355 C   0  0  0  0  0  0  0  0  0  0  0  0
  -22.2539    2.1860  -14.0085 C   0  0  0  0  0  0  0  0  0  0  0  0
  -21.3639    3.0200  -14.6434 N   0  0  0  0  0  0  0  0  0  0  0  0
  -20.1562    2.6188  -15.1756 C   0  0  0  0  0  0  0  0  0  0  0  0
  -19.4239    3.4178  -15.7519 O   0  0  0  0  0  0  0  0  0  0  0  0
  -21.6026    3.9965  -14.7909 H   0  0  0  0  0  0  0  0  0  0  0  0
  -18.6118    0.7343  -15.5640 O   0  0  0  0  0  0  0  0  0  0  0  0
  -16.2555    1.2426  -15.5474 C   0  0  0  0  0  0  0  0  0  0  0  0
  -17.4605    0.8301  -14.7260 C   0  0  0  0  0  0  0  0  0  0  0  0
  -28.0784   -3.0198   -8.4036 C   0  0  0  0  0  0  0  0  0  0  0  0
  -29.0984   -3.9356   -8.1781 C   0  0  0  0  0  0  0  0  0  0  0  0
  -29.8070   -3.9284   -6.9705 C   0  0  0  0  0  0  0  0  0  0  0  0
  -29.5772   -2.9649   -5.9624 C   0  0  0  0  0  0  0  0  0  0  0  0
  -28.5344   -2.0320   -6.1783 C   0  0  0  0  0  0  0  0  0  0  0  0
  -27.7960   -2.0817   -7.4024 C   0  0  0  0  0  0  0  0  0  0  0  0
  -28.0969   -0.9837   -5.1724 C   0  0  0  0  0  0  0  0  0  0  0  0
  -29.0796   -0.1673   -4.7065 F   0  0  0  0  0  0  0  0  0  0  0  0
  -27.5405   -1.5380   -4.0576 F   0  0  0  0  0  0  0  0  0  0  0  0
  -27.1486   -0.1422   -5.6757 F   0  0  0  0  0  0  0  0  0  0  0  0
  -30.4232   -3.0726   -4.6952 C   0  0  0  0  0  0  0  0  0  0  0  0
  -30.1697   -4.1340   -3.7135 N   0  0  0  0  0  0  0  0  0  0  0  0
  -28.7858   -4.5475   -3.5020 C   0  0  0  0  0  0  0  0  0  0  0  0
  -28.2817   -5.6232   -4.4868 C   0  0  0  0  0  0  0  0  0  0  0  0
  -29.1462   -6.7959   -4.6880 N   0  0  0  0  0  0  0  0  0  0  0  0
  -30.5839   -6.4592   -4.6648 C   0  0  0  0  0  0  0  0  0  0  0  0
  -31.0370   -5.3099   -3.7359 C   0  0  0  0  0  0  0  0  0  0  0  0
  -28.8117   -7.9536   -3.8599 C   0  0  0  0  0  0  0  0  0  0  0  0
  -27.5002   -8.6175   -4.2850 C   0  0  0  0  0  0  0  0  0  0  0  0
 23 24  1  0  0  0
 24 22  1  0  0  0
 22 14  1  0  0  0
 14 15  2  0  0  0
 14 19  1  0  0  0
 15 16  1  0  0  0
 16  7  1  0  0  0
 16 17  2  0  0  0
  7  8  1  0  0  0
  7 13  2  0  0  0
  8  9  2  0  0  0
  9 10  1  0  0  0
 10  1  1  0  0  0
 10 11  2  0  0  0
  1  2  1  0  0  0
  1  5  1  0  0  0
  2  3  2  0  0  0
  2  4  1  0  0  0
  4 25  1  0  0  0
  4  6  1  0  0  0
 25 26  1  0  0  0
 25 30  2  0  0  0
 26 27  2  0  0  0
 27 28  1  0  0  0
 28 35  1  0  0  0
 28 29  2  0  0  0
 35 36  1  0  0  0
 36 37  1  0  0  0
 36 41  1  0  0  0
 37 38  1  0  0  0
 38 39  1  0  0  0
 39 42  1  0  0  0
 39 40  1  0  0  0
 42 43  1  0  0  0
 40 41  1  0  0  0
 29 31  1  0  0  0
 29 30  1  0  0  0
 31 32  1  0  0  0
 31 33  1  0  0  0
 31 34  1  0  0  0
 11 12  1  0  0  0
 11 13  1  0  0  0
 17 18  1  0  0  0
 18 19  1  0  0  0
 18 21  1  0  0  0
 19 20  2  0  0  0
M  END
> <minimizedAffinity>
-11.75741

$$$$
