CHEMBL2005449


 25 27  0  0  0  0  0  0  0  0999 V2000
  -18.0280    2.7185  -14.9068 C   0  0  0  0  0  0  0  0  0  0  0  0
  -17.2013    3.3318  -15.7594 N   0  0  0  0  0  0  0  0  0  0  0  0
  -16.1184    2.6479  -16.1354 C   0  0  0  0  0  0  0  0  0  0  0  0
  -15.1419    3.4560  -17.2922 Cl  0  0  0  0  0  0  0  0  0  0  0  0
  -15.8016    1.3963  -15.7015 C   0  0  0  0  0  0  0  0  0  0  0  0
  -16.7104    0.8217  -14.8467 C   0  0  0  0  0  0  0  0  0  0  0  0
  -17.8107    1.4771  -14.4376 N   0  0  0  0  0  0  0  0  0  0  0  0
  -19.2024    3.3434  -14.4913 N   0  0  0  0  0  0  0  0  0  0  0  0
  -18.9771    4.1547  -13.9352 H   0  0  0  0  0  0  0  0  0  0  0  0
  -23.0911    0.3310  -13.8330 C   0  0  0  0  0  0  0  0  0  0  0  0
  -22.1593    1.4529  -14.0688 C   0  0  0  0  0  0  0  0  0  0  0  0
  -20.8098    1.4779  -14.3333 C   0  0  0  0  0  0  0  0  0  0  0  0
  -20.4477    2.8455  -14.3717 C   0  0  0  0  0  0  0  0  0  0  0  0
  -21.5243    3.6246  -14.2251 N   0  0  0  0  0  0  0  0  0  0  0  0
  -22.5366    2.7638  -14.0275 N   0  0  0  0  0  0  0  0  0  0  0  0
  -23.4605    3.1434  -13.8506 H   0  0  0  0  0  0  0  0  0  0  0  0
  -16.4732   -0.4997  -14.4697 N   0  0  0  0  0  0  0  0  0  0  0  0
  -16.3809   -1.1132  -15.2735 H   0  0  0  0  0  0  0  0  0  0  0  0
  -15.4647   -0.7437  -13.4524 C   0  0  0  0  0  0  0  0  0  0  0  0
  -15.7624   -2.0796  -12.8011 C   0  0  0  0  0  0  0  0  0  0  0  0
  -15.7182   -2.2381  -11.4100 C   0  0  0  0  0  0  0  0  0  0  0  0
  -16.0267   -3.4714  -10.8282 C   0  0  0  0  0  0  0  0  0  0  0  0
  -16.3833   -4.5569  -11.6273 C   0  0  0  0  0  0  0  0  0  0  0  0
  -16.4312   -4.4136  -13.0111 C   0  0  0  0  0  0  0  0  0  0  0  0
  -16.1261   -3.1832  -13.5933 C   0  0  0  0  0  0  0  0  0  0  0  0
 10 11  1  0  0  0
 11 12  2  0  0  0
 11 15  1  0  0  0
 12 13  1  0  0  0
 13  8  1  0  0  0
 13 14  2  0  0  0
  8  1  1  0  0  0
  8  9  1  0  0  0
  1  2  1  0  0  0
  1  7  2  0  0  0
  2  3  2  0  0  0
  3  4  1  0  0  0
  3  5  1  0  0  0
  5  6  2  0  0  0
  6 17  1  0  0  0
  6  7  1  0  0  0
 17 19  1  0  0  0
 17 18  1  0  0  0
 19 20  1  0  0  0
 20 21  1  0  0  0
 20 25  2  0  0  0
 21 22  2  0  0  0
 22 23  1  0  0  0
 23 24  2  0  0  0
 24 25  1  0  0  0
 14 15  1  0  0  0
 15 16  1  0  0  0
M  END
> <minimizedAffinity>
-8.97688

$$$$
