CHEMBL204678


 21 23  0  0  0  0  0  0  0  0999 V2000
  -29.0816   -4.0941   -6.2754 C   0  0  0  0  0  0  0  0  0  0  0  0
  -29.1270   -4.8388   -5.1565 C   0  0  0  0  0  0  0  0  0  0  0  0
  -28.7842   -4.5018   -3.7513 C   0  0  0  0  0  0  0  0  0  0  0  0
  -28.4688   -3.4311   -3.2703 O   0  0  0  0  0  0  0  0  0  0  0  0
  -28.9160   -5.6995   -3.0822 N   0  0  0  0  0  0  0  0  0  0  0  0
  -29.3717   -6.7417   -3.8423 N   0  0  0  0  0  0  0  0  0  0  0  0
  -29.5257   -6.2812   -5.0663 C   0  0  0  0  0  0  0  0  0  0  0  0
  -28.7606   -5.8084   -2.0868 H   0  0  0  0  0  0  0  0  0  0  0  0
  -28.6822    0.6452   -5.0194 C   0  0  0  0  0  0  0  0  0  0  0  0
  -28.5168   -0.5456   -5.8862 C   0  0  0  0  0  0  0  0  0  0  0  0
  -27.9614   -0.7015   -7.1341 C   0  0  0  0  0  0  0  0  0  0  0  0
  -28.0747   -2.0754   -7.4923 C   0  0  0  0  0  0  0  0  0  0  0  0
  -27.5952   -2.6725   -8.7702 C   0  0  0  0  0  0  0  0  0  0  0  0
  -28.7101   -2.7300   -6.4385 C   0  0  0  0  0  0  0  0  0  0  0  0
  -28.9604   -1.7768   -5.4811 N   0  0  0  0  0  0  0  0  0  0  0  0
  -29.4174   -1.9411   -4.5903 H   0  0  0  0  0  0  0  0  0  0  0  0
  -30.0511   -7.0992   -6.1392 C   0  0  0  0  0  0  0  0  0  0  0  0
  -31.3311   -7.3525   -6.3245 N   0  0  0  0  0  0  0  0  0  0  0  0
  -31.4955   -8.1810   -7.4170 C   0  0  0  0  0  0  0  0  0  0  0  0
  -30.3354   -8.5615   -8.0530 C   0  0  0  0  0  0  0  0  0  0  0  0
  -28.9899   -7.8528   -7.2679 S   0  0  0  0  0  0  0  0  0  0  0  0
  9 10  1  0  0  0
 10 11  2  0  0  0
 10 15  1  0  0  0
 11 12  1  0  0  0
 12 13  1  0  0  0
 12 14  2  0  0  0
 14  1  1  0  0  0
 14 15  1  0  0  0
  1  2  2  0  0  0
  2  3  1  0  0  0
  2  7  1  0  0  0
  3  4  2  0  0  0
  3  5  1  0  0  0
  5  6  1  0  0  0
  5  8  1  0  0  0
  6  7  2  0  0  0
  7 17  1  0  0  0
 17 18  2  0  0  0
 17 21  1  0  0  0
 18 19  1  0  0  0
 19 20  2  0  0  0
 20 21  1  0  0  0
 15 16  1  0  0  0
M  END
> <minimizedAffinity>
-7.65251

$$$$
