CHEMBL4238320


 28 31  0  0  0  0  0  0  0  0999 V2000
  -30.2645   -5.3160   -7.4350 N   0  0  0  0  0  0  0  0  0  0  0  0
  -30.9332   -5.2244   -8.1906 H   0  0  0  0  0  0  0  0  0  0  0  0
  -30.1222   -6.6606   -7.0883 C   0  0  0  0  0  0  0  0  0  0  0  0
  -30.1432   -6.8881   -5.7608 N   0  0  0  0  0  0  0  0  0  0  0  0
  -29.6902   -8.0747   -5.3273 C   0  0  0  0  0  0  0  0  0  0  0  0
  -29.1801   -9.0254   -6.1720 C   0  0  0  0  0  0  0  0  0  0  0  0
  -29.3555   -8.7882   -7.5332 C   0  0  0  0  0  0  0  0  0  0  0  0
  -29.8397   -7.6187   -7.9932 N   0  0  0  0  0  0  0  0  0  0  0  0
  -28.7265   -9.7271   -8.4716 C   0  0  0  0  0  0  0  0  0  0  0  0
  -29.4475  -10.4801   -9.4103 C   0  0  0  0  0  0  0  0  0  0  0  0
  -28.7893  -11.4323  -10.2063 C   0  0  0  0  0  0  0  0  0  0  0  0
  -27.3985  -11.5608  -10.1564 C   0  0  0  0  0  0  0  0  0  0  0  0
  -26.6728  -10.8639   -9.1981 C   0  0  0  0  0  0  0  0  0  0  0  0
  -27.3658  -10.0662   -8.2884 C   0  0  0  0  0  0  0  0  0  0  0  0
  -26.6631   -9.8880   -6.6221 S   0  0  0  0  0  0  0  0  0  0  0  0
  -28.2776  -10.1312   -5.7380 C   0  0  0  0  0  0  0  0  0  0  0  0
  -29.1357   -2.4517   -5.3416 C   0  0  0  0  0  0  0  0  0  0  0  0
  -29.8112   -3.5928   -5.7818 C   0  0  0  0  0  0  0  0  0  0  0  0
  -29.5863   -4.1582   -7.0364 C   0  0  0  0  0  0  0  0  0  0  0  0
  -28.7136   -3.4933   -7.9117 C   0  0  0  0  0  0  0  0  0  0  0  0
  -28.0606   -2.3201   -7.5103 C   0  0  0  0  0  0  0  0  0  0  0  0
  -28.2381   -1.8112   -6.2095 C   0  0  0  0  0  0  0  0  0  0  0  0
  -29.0676   -2.7592   -2.9839 C   0  0  0  0  0  0  0  0  0  0  0  0
  -29.3663   -1.9192   -4.0943 O   0  0  0  0  0  0  0  0  0  0  0  0
  -27.1543   -1.6514   -8.3117 O   0  0  0  0  0  0  0  0  0  0  0  0
  -27.2889   -1.8483   -9.7123 C   0  0  0  0  0  0  0  0  0  0  0  0
  -27.5391   -0.6628   -5.9168 O   0  0  0  0  0  0  0  0  0  0  0  0
  -28.2480    0.5620   -6.0398 C   0  0  0  0  0  0  0  0  0  0  0  0
 23 24  1  0  0  0
 24 17  1  0  0  0
 17 18  1  0  0  0
 17 22  2  0  0  0
 18 19  2  0  0  0
 19  1  1  0  0  0
 19 20  1  0  0  0
  1  3  1  0  0  0
  1  2  1  0  0  0
  3  4  1  0  0  0
  3  8  2  0  0  0
  4  5  2  0  0  0
  5  6  1  0  0  0
  6  7  2  0  0  0
  6 16  1  0  0  0
  7  8  1  0  0  0
  7  9  1  0  0  0
  9 10  1  0  0  0
  9 14  2  0  0  0
 10 11  2  0  0  0
 11 12  1  0  0  0
 12 13  2  0  0  0
 13 14  1  0  0  0
 14 15  1  0  0  0
 15 16  1  0  0  0
 20 21  2  0  0  0
 21 25  1  0  0  0
 21 22  1  0  0  0
 25 26  1  0  0  0
 22 27  1  0  0  0
 27 28  1  0  0  0
M  END
> <minimizedAffinity>
-7.73572

$$$$
