CHEMBL3960830


 31 34  0  0  0  0  0  0  0  0999 V2000
  -28.8345   -9.0545   -5.7599 C   0  0  0  0  0  0  0  0  0  0  0  0
  -29.3957   -8.4582   -6.9024 C   0  0  0  0  0  0  0  0  0  0  0  0
  -29.9505   -7.1555   -6.8599 C   0  0  0  0  0  0  0  0  0  0  0  0
  -30.0340   -6.5107   -5.6113 C   0  0  0  0  0  0  0  0  0  0  0  0
  -30.5234   -5.2891   -5.0206 C   0  0  0  0  0  0  0  0  0  0  0  0
  -31.3129   -5.7175   -4.0108 N   0  0  0  0  0  0  0  0  0  0  0  0
  -30.5358   -6.7084   -3.5170 N   0  0  0  0  0  0  0  0  0  0  0  0
  -29.7592   -7.2865   -4.4935 C   0  0  0  0  0  0  0  0  0  0  0  0
  -29.0001   -8.4511   -4.5100 C   0  0  0  0  0  0  0  0  0  0  0  0
  -30.7249   -7.0573   -2.5858 H   0  0  0  0  0  0  0  0  0  0  0  0
  -29.7236   -4.1308   -4.6080 C   0  0  0  0  0  0  0  0  0  0  0  0
  -30.1888   -2.8671   -4.5234 C   0  0  0  0  0  0  0  0  0  0  0  0
  -29.3860   -1.7032   -4.9658 C   0  0  0  0  0  0  0  0  0  0  0  0
  -28.0055   -1.7059   -4.7794 C   0  0  0  0  0  0  0  0  0  0  0  0
  -27.2888   -0.5228   -4.9572 C   0  0  0  0  0  0  0  0  0  0  0  0
  -27.9650    0.6403   -5.3097 C   0  0  0  0  0  0  0  0  0  0  0  0
  -29.3360    0.5627   -5.4832 C   0  0  0  0  0  0  0  0  0  0  0  0
  -30.0539   -0.5757   -5.3257 N   0  0  0  0  0  0  0  0  0  0  0  0
  -28.1514  -10.7105   -5.7812 S   0  0  0  0  0  0  0  0  0  0  0  0
  -25.4731  -10.6112   -6.7851 C   0  0  0  0  0  0  0  0  0  0  0  0
  -24.1055  -10.3496   -6.5725 C   0  0  0  0  0  0  0  0  0  0  0  0
  -23.6531   -9.8428   -5.3542 C   0  0  0  0  0  0  0  0  0  0  0  0
  -24.5601   -9.5838   -4.3363 C   0  0  0  0  0  0  0  0  0  0  0  0
  -25.9147   -9.8636   -4.5232 C   0  0  0  0  0  0  0  0  0  0  0  0
  -26.3898  -10.4048   -5.7284 C   0  0  0  0  0  0  0  0  0  0  0  0
  -26.3787  -10.1449   -8.9937 N   0  0  0  0  0  0  0  0  0  0  0  0
  -25.8279  -11.0831   -8.1547 C   0  0  0  0  0  0  0  0  0  0  0  0
  -25.5861  -12.2384   -8.4788 O   0  0  0  0  0  0  0  0  0  0  0  0
  -26.2945   -9.1414   -8.8005 H   0  0  0  0  0  0  0  0  0  0  0  0
  -27.9036  -10.6016  -10.6335 C   0  0  0  0  0  0  0  0  0  0  0  0
  -26.5155  -10.4912  -10.3481 O   0  0  0  0  0  0  0  0  0  0  0  0
 30 31  1  0  0  0
 31 26  1  0  0  0
 26 27  1  0  0  0
 26 29  1  0  0  0
 27 28  2  0  0  0
 27 20  1  0  0  0
 20 21  1  0  0  0
 20 25  2  0  0  0
 21 22  2  0  0  0
 22 23  1  0  0  0
 23 24  2  0  0  0
 24 25  1  0  0  0
 25 19  1  0  0  0
 19  1  1  0  0  0
  1  2  1  0  0  0
  1  9  2  0  0  0
  2  3  2  0  0  0
  3  4  1  0  0  0
  4  5  1  0  0  0
  4  8  2  0  0  0
  5 11  1  0  0  0
  5  6  2  0  0  0
 11 12  2  0  0  0
 12 13  1  0  0  0
 13 14  1  0  0  0
 13 18  2  0  0  0
 14 15  2  0  0  0
 15 16  1  0  0  0
 16 17  2  0  0  0
 17 18  1  0  0  0
  6  7  1  0  0  0
  7  8  1  0  0  0
  7 10  1  0  0  0
  8  9  1  0  0  0
M  END
> <minimizedAffinity>
-7.95568

$$$$
