CHEMBL1290177


 23 26  0  0  0  0  0  0  0  0999 V2000
  -27.9597   -1.6422   -7.4202 C   0  0  0  0  0  0  0  0  0  0  0  0
  -27.9972   -0.3489   -6.8709 C   0  0  0  0  0  0  0  0  0  0  0  0
  -28.7094   -0.0921   -5.7066 C   0  0  0  0  0  0  0  0  0  0  0  0
  -29.4234   -0.9937   -5.0143 N   0  0  0  0  0  0  0  0  0  0  0  0
  -29.3969   -2.2189   -5.5666 C   0  0  0  0  0  0  0  0  0  0  0  0
  -30.0828   -3.2597   -5.0260 O   0  0  0  0  0  0  0  0  0  0  0  0
  -29.8533   -4.3425   -5.8077 C   0  0  0  0  0  0  0  0  0  0  0  0
  -30.3882   -5.6102   -5.5841 C   0  0  0  0  0  0  0  0  0  0  0  0
  -30.0285   -6.6115   -6.4885 C   0  0  0  0  0  0  0  0  0  0  0  0
  -29.1784   -6.3373   -7.5604 C   0  0  0  0  0  0  0  0  0  0  0  0
  -28.6647   -5.0473   -7.7659 C   0  0  0  0  0  0  0  0  0  0  0  0
  -29.0092   -4.0175   -6.8657 C   0  0  0  0  0  0  0  0  0  0  0  0
  -28.7146   -2.6199   -6.7198 C   0  0  0  0  0  0  0  0  0  0  0  0
  -27.2876   -1.9228   -8.6122 N   0  0  0  0  0  0  0  0  0  0  0  0
  -26.3292   -1.5919   -8.6304 H   0  0  0  0  0  0  0  0  0  0  0  0
  -27.9719   -1.8184   -9.8915 C   0  0  0  0  0  0  0  0  0  0  0  0
  -24.0096   -0.8874  -14.3491 Cl  0  0  0  0  0  0  0  0  0  0  0  0
  -25.1332   -1.1777  -13.0787 C   0  0  0  0  0  0  0  0  0  0  0  0
  -26.4319   -1.5799  -13.3801 C   0  0  0  0  0  0  0  0  0  0  0  0
  -27.3456   -1.8037  -12.3464 C   0  0  0  0  0  0  0  0  0  0  0  0
  -26.9665   -1.6266  -11.0049 C   0  0  0  0  0  0  0  0  0  0  0  0
  -25.6520   -1.2288  -10.7201 C   0  0  0  0  0  0  0  0  0  0  0  0
  -24.7390   -1.0034  -11.7538 C   0  0  0  0  0  0  0  0  0  0  0  0
 17 18  1  0  0  0
 18 19  1  0  0  0
 18 23  2  0  0  0
 19 20  2  0  0  0
 20 21  1  0  0  0
 21 16  1  0  0  0
 21 22  2  0  0  0
 16 14  1  0  0  0
 14  1  1  0  0  0
 14 15  1  0  0  0
  1  2  1  0  0  0
  1 13  2  0  0  0
  2  3  2  0  0  0
  3  4  1  0  0  0
  4  5  2  0  0  0
  5  6  1  0  0  0
  5 13  1  0  0  0
  6  7  1  0  0  0
  7  8  1  0  0  0
  7 12  2  0  0  0
  8  9  2  0  0  0
  9 10  1  0  0  0
 10 11  2  0  0  0
 11 12  1  0  0  0
 12 13  1  0  0  0
 22 23  1  0  0  0
M  END
> <minimizedAffinity>
-8.99995

$$$$
