CHEMBL2079588


 31 34  0  0  0  0  0  0  0  0999 V2000
  -14.5862   -0.0370  -13.7328 C   0  0  0  0  0  0  0  0  0  0  0  0
  -15.6503    0.3758  -13.0231 N   0  0  0  0  0  0  0  0  0  0  0  0
  -16.6759    1.1098  -13.6187 N   0  0  0  0  0  0  0  0  0  0  0  0
  -16.6779    1.4836  -14.9295 C   0  0  0  0  0  0  0  0  0  0  0  0
  -15.5548    1.0977  -15.6831 C   0  0  0  0  0  0  0  0  0  0  0  0
  -15.1415    1.2484  -17.0411 C   0  0  0  0  0  0  0  0  0  0  0  0
  -13.9401    0.5930  -17.1620 C   0  0  0  0  0  0  0  0  0  0  0  0
  -13.5725    0.0565  -15.9740 O   0  0  0  0  0  0  0  0  0  0  0  0
  -14.5542    0.3487  -15.0685 C   0  0  0  0  0  0  0  0  0  0  0  0
  -17.7413    2.2177  -15.4694 N   0  0  0  0  0  0  0  0  0  0  0  0
  -17.5386    2.7510  -16.3017 H   0  0  0  0  0  0  0  0  0  0  0  0
  -19.0978    2.1295  -15.1179 C   0  0  0  0  0  0  0  0  0  0  0  0
  -19.7836    3.2741  -14.6938 C   0  0  0  0  0  0  0  0  0  0  0  0
  -21.1045    3.1851  -14.2390 C   0  0  0  0  0  0  0  0  0  0  0  0
  -21.7508    1.9505  -14.2167 C   0  0  0  0  0  0  0  0  0  0  0  0
  -23.3629    1.8336  -13.6303 Cl  0  0  0  0  0  0  0  0  0  0  0  0
  -21.0930    0.8072  -14.6526 C   0  0  0  0  0  0  0  0  0  0  0  0
  -19.7714    0.8994  -15.0893 C   0  0  0  0  0  0  0  0  0  0  0  0
  -13.6378   -0.7552  -13.0431 O   0  0  0  0  0  0  0  0  0  0  0  0
  -13.5718   -2.1247  -13.4310 C   0  0  0  0  0  0  0  0  0  0  0  0
  -14.4617   -4.1896  -10.3807 C   0  0  0  0  0  0  0  0  0  0  0  0
  -13.7118   -3.4393  -11.2736 C   0  0  0  0  0  0  0  0  0  0  0  0
  -14.3273   -2.9685  -12.4351 C   0  0  0  0  0  0  0  0  0  0  0  0
  -15.6849   -3.2434  -12.6258 C   0  0  0  0  0  0  0  0  0  0  0  0
  -16.3584   -3.9993  -11.6756 C   0  0  0  0  0  0  0  0  0  0  0  0
  -15.7815   -4.4872  -10.5563 N   0  0  0  0  0  0  0  0  0  0  0  0
  -11.9416   -4.4077   -7.5786 C   0  0  0  0  0  0  0  0  0  0  0  0
  -12.6783   -4.0270   -8.7501 N   0  0  0  0  0  0  0  0  0  0  0  0
  -13.8086   -4.7115   -9.1392 C   0  0  0  0  0  0  0  0  0  0  0  0
  -14.2603   -5.6756   -8.5306 O   0  0  0  0  0  0  0  0  0  0  0  0
  -12.3926   -3.2424   -9.3298 H   0  0  0  0  0  0  0  0  0  0  0  0
 27 28  1  0  0  0
 28 29  1  0  0  0
 28 31  1  0  0  0
 29 30  2  0  0  0
 29 21  1  0  0  0
 21 22  1  0  0  0
 21 26  2  0  0  0
 22 23  2  0  0  0
 23 20  1  0  0  0
 23 24  1  0  0  0
 20 19  1  0  0  0
 19  1  1  0  0  0
  1  2  1  0  0  0
  1  9  2  0  0  0
  2  3  2  0  0  0
  3  4  1  0  0  0
  4 10  1  0  0  0
  4  5  2  0  0  0
 10 12  1  0  0  0
 10 11  1  0  0  0
 12 13  1  0  0  0
 12 18  2  0  0  0
 13 14  2  0  0  0
 14 15  1  0  0  0
 15 16  1  0  0  0
 15 17  2  0  0  0
 17 18  1  0  0  0
  5  6  1  0  0  0
  5  9  1  0  0  0
  6  7  2  0  0  0
  7  8  1  0  0  0
  8  9  1  0  0  0
 24 25  2  0  0  0
 25 26  1  0  0  0
M  END
> <minimizedAffinity>
-9.08278

$$$$
