CHEMBL3604466


 27 28  0  0  0  0  0  0  0  0999 V2000
  -16.8339    1.3241  -14.9646 C   0  0  0  0  0  0  0  0  0  0  0  0
  -16.8184    0.3340  -14.0399 N   0  0  0  0  0  0  0  0  0  0  0  0
  -15.6443    0.0307  -13.4634 C   0  0  0  0  0  0  0  0  0  0  0  0
  -14.4960    0.6671  -13.7421 N   0  0  0  0  0  0  0  0  0  0  0  0
  -14.5376    1.6559  -14.6475 C   0  0  0  0  0  0  0  0  0  0  0  0
  -15.6803    2.0166  -15.3081 C   0  0  0  0  0  0  0  0  0  0  0  0
  -15.6505    3.4606  -16.5257 Br  0  0  0  0  0  0  0  0  0  0  0  0
  -18.0417    1.6235  -15.6433 N   0  0  0  0  0  0  0  0  0  0  0  0
  -17.8642    2.4510  -16.2164 H   0  0  0  0  0  0  0  0  0  0  0  0
  -20.2471    0.7964  -15.0733 C   0  0  0  0  0  0  0  0  0  0  0  0
  -19.1999    1.8763  -14.7729 C   0  0  0  0  0  0  0  0  0  0  0  0
  -19.7835    3.2800  -15.0579 C   0  0  0  0  0  0  0  0  0  0  0  0
  -20.7750    3.6366  -14.0885 O   0  0  0  0  0  0  0  0  0  0  0  0
  -20.3166    3.8105  -13.2497 H   0  0  0  0  0  0  0  0  0  0  0  0
  -15.6419   -0.9570  -12.4795 N   0  0  0  0  0  0  0  0  0  0  0  0
  -15.8148   -0.5863  -11.5590 H   0  0  0  0  0  0  0  0  0  0  0  0
  -15.6365   -2.3480  -12.6452 C   0  0  0  0  0  0  0  0  0  0  0  0
  -16.0689   -3.1830  -11.6087 C   0  0  0  0  0  0  0  0  0  0  0  0
  -15.9667   -4.5772  -11.7198 C   0  0  0  0  0  0  0  0  0  0  0  0
  -15.4413   -5.1589  -12.8807 C   0  0  0  0  0  0  0  0  0  0  0  0
  -15.0156   -4.3337  -13.9223 C   0  0  0  0  0  0  0  0  0  0  0  0
  -15.1087   -2.9468  -13.7990 C   0  0  0  0  0  0  0  0  0  0  0  0
  -15.2960   -6.9550  -13.0133 S   0  0  0  0  0  0  0  0  0  0  0  0
  -15.9979   -6.9670  -14.5143 N   0  0  0  0  0  0  0  0  0  0  0  0
  -13.7708   -7.2986  -13.1115 O   0  0  0  0  0  0  0  0  0  0  0  0
  -17.0105   -6.9604  -14.5595 H   0  0  0  0  0  0  0  0  0  0  0  0
  -15.6607   -7.6938  -15.1390 H   0  0  0  0  0  0  0  0  0  0  0  0
 11  8  1  0  0  0
 11 12  1  0  0  0
 11 10  1  0  0  0
 12 13  1  0  0  0
 13 14  1  0  0  0
  8  1  1  0  0  0
  8  9  1  0  0  0
  1  2  1  0  0  0
  1  6  2  0  0  0
  2  3  2  0  0  0
  3 15  1  0  0  0
  3  4  1  0  0  0
 15 17  1  0  0  0
 15 16  1  0  0  0
 17 18  1  0  0  0
 17 22  2  0  0  0
 18 19  2  0  0  0
 19 20  1  0  0  0
 20 23  1  0  0  0
 20 21  2  0  0  0
 23 24  1  0  0  0
 23 25  1  0  0  0
 24 26  1  0  0  0
 24 27  1  0  0  0
 21 22  1  0  0  0
  4  5  2  0  0  0
  5  6  1  0  0  0
  6  7  1  0  0  0
M  CHG 1  23   1
M  CHG 1  25  -1
M  END
> <minimizedAffinity>
-7.19181

$$$$
