CHEMBL178583


 33 36  0  0  0  0  0  0  0  0999 V2000
  -21.7909    1.0143  -14.3274 C   0  0  0  0  0  0  0  0  0  0  0  0
  -22.6168    1.9460  -13.9357 N   0  0  0  0  0  0  0  0  0  0  0  0
  -22.2101    3.2461  -13.8531 C   0  0  0  0  0  0  0  0  0  0  0  0
  -21.0347    3.7040  -14.1358 N   0  0  0  0  0  0  0  0  0  0  0  0
  -20.1747    2.7593  -14.5337 N   0  0  0  0  0  0  0  0  0  0  0  0
  -18.8849    3.0011  -14.8851 C   0  0  0  0  0  0  0  0  0  0  0  0
  -18.2674    1.8077  -15.2259 C   0  0  0  0  0  0  0  0  0  0  0  0
  -19.2887    0.7889  -15.0986 C   0  0  0  0  0  0  0  0  0  0  0  0
  -19.1239   -0.6663  -15.3724 C   0  0  0  0  0  0  0  0  0  0  0  0
  -20.4465    1.4289  -14.6524 C   0  0  0  0  0  0  0  0  0  0  0  0
  -16.8588    1.7027  -15.6503 C   0  0  0  0  0  0  0  0  0  0  0  0
  -16.3605    2.4199  -16.5099 O   0  0  0  0  0  0  0  0  0  0  0  0
  -16.1745    0.7088  -14.9900 N   0  0  0  0  0  0  0  0  0  0  0  0
  -16.7154    0.0822  -14.4105 H   0  0  0  0  0  0  0  0  0  0  0  0
  -14.7623    0.4076  -15.1572 C   0  0  0  0  0  0  0  0  0  0  0  0
  -14.2187   -0.1409  -13.8360 C   0  0  0  0  0  0  0  0  0  0  0  0
  -15.2755   -0.7885  -12.9336 C   0  0  0  0  0  0  0  0  0  0  0  0
  -14.7943   -2.0494  -12.3319 N   0  0  0  0  0  0  0  0  0  0  0  0
  -14.7667   -3.1939  -13.2582 C   0  0  0  0  0  0  0  0  0  0  0  0
  -16.1248   -3.8455  -13.1169 C   0  0  0  0  0  0  0  0  0  0  0  0
  -16.3513   -3.7682  -11.6237 C   0  0  0  0  0  0  0  0  0  0  0  0
  -15.6555   -2.4742  -11.2048 C   0  0  0  0  0  0  0  0  0  0  0  0
  -22.2296   -0.2957  -14.3931 N   0  0  0  0  0  0  0  0  0  0  0  0
  -21.9770   -0.8249  -15.2152 H   0  0  0  0  0  0  0  0  0  0  0  0
  -27.2698   -2.0407  -12.2628 C   0  0  0  0  0  0  0  0  0  0  0  0
  -25.9515   -1.5869  -12.8173 C   0  0  0  0  0  0  0  0  0  0  0  0
  -25.8002   -1.3187  -14.1834 C   0  0  0  0  0  0  0  0  0  0  0  0
  -24.5685   -0.8888  -14.6934 C   0  0  0  0  0  0  0  0  0  0  0  0
  -23.4594   -0.7398  -13.8527 C   0  0  0  0  0  0  0  0  0  0  0  0
  -23.6172   -1.0032  -12.4857 C   0  0  0  0  0  0  0  0  0  0  0  0
  -24.8481   -1.4190  -11.9802 C   0  0  0  0  0  0  0  0  0  0  0  0
  -24.9910   -1.6649  -10.6432 O   0  0  0  0  0  0  0  0  0  0  0  0
  -24.1309   -1.5348  -10.2109 H   0  0  0  0  0  0  0  0  0  0  0  0
 25 26  1  0  0  0
 26 27  1  0  0  0
 26 31  2  0  0  0
 27 28  2  0  0  0
 28 29  1  0  0  0
 29 23  1  0  0  0
 29 30  2  0  0  0
 23  1  1  0  0  0
 23 24  1  0  0  0
  1  2  2  0  0  0
  1 10  1  0  0  0
  2  3  1  0  0  0
  3  4  2  0  0  0
  4  5  1  0  0  0
  5  6  1  0  0  0
  5 10  1  0  0  0
  6  7  2  0  0  0
  7 11  1  0  0  0
  7  8  1  0  0  0
 11 12  2  0  0  0
 11 13  1  0  0  0
 13 15  1  0  0  0
 13 14  1  0  0  0
 15 16  1  0  0  0
 16 17  1  0  0  0
 17 18  1  0  0  0
 18 19  1  0  0  0
 18 22  1  0  0  0
 19 20  1  0  0  0
 20 21  1  0  0  0
 21 22  1  0  0  0
  8  9  1  0  0  0
  8 10  2  0  0  0
 30 31  1  0  0  0
 31 32  1  0  0  0
 32 33  1  0  0  0
M  END
> <minimizedAffinity>
-9.35782

$$$$
