CHEMBL593987


 41 46  0  0  0  0  0  0  0  0999 V2000
  -14.6619    5.0343  -18.1914 C   0  0  0  0  0  0  0  0  0  0  0  0
  -15.6046    4.3805  -17.4043 C   0  0  0  0  0  0  0  0  0  0  0  0
  -15.2377    3.3459  -16.5198 C   0  0  0  0  0  0  0  0  0  0  0  0
  -16.1645    2.6022  -15.7721 C   0  0  0  0  0  0  0  0  0  0  0  0
  -15.7786    1.7050  -14.8594 N   0  0  0  0  0  0  0  0  0  0  0  0
  -14.4635    1.5266  -14.7103 C   0  0  0  0  0  0  0  0  0  0  0  0
  -13.4991    2.1321  -15.4156 N   0  0  0  0  0  0  0  0  0  0  0  0
  -13.8911    3.0395  -16.3180 C   0  0  0  0  0  0  0  0  0  0  0  0
  -12.9500    3.7148  -17.0839 C   0  0  0  0  0  0  0  0  0  0  0  0
  -13.3045    4.7003  -18.0272 C   0  0  0  0  0  0  0  0  0  0  0  0
  -14.7649    7.3695  -18.7991 C   0  0  0  0  0  0  0  0  0  0  0  0
  -15.0147    6.0007  -19.0868 O   0  0  0  0  0  0  0  0  0  0  0  0
  -17.5434    2.7994  -16.0266 N   0  0  0  0  0  0  0  0  0  0  0  0
  -17.7085    3.0324  -16.9992 H   0  0  0  0  0  0  0  0  0  0  0  0
  -18.6450    2.2433  -15.3598 C   0  0  0  0  0  0  0  0  0  0  0  0
  -18.8285    0.8538  -15.3626 C   0  0  0  0  0  0  0  0  0  0  0  0
  -20.0141    0.2860  -14.8796 C   0  0  0  0  0  0  0  0  0  0  0  0
  -21.0555    1.0968  -14.4013 C   0  0  0  0  0  0  0  0  0  0  0  0
  -20.8428    2.4724  -14.3636 C   0  0  0  0  0  0  0  0  0  0  0  0
  -21.7658    3.3081  -13.8629 F   0  0  0  0  0  0  0  0  0  0  0  0
  -19.6701    3.0401  -14.8498 C   0  0  0  0  0  0  0  0  0  0  0  0
  -22.3088    0.4842  -13.9572 C   0  0  0  0  0  0  0  0  0  0  0  0
  -23.2196   -0.0016  -14.7755 N   0  0  0  0  0  0  0  0  0  0  0  0
  -24.2546   -0.5656  -14.0508 C   0  0  0  0  0  0  0  0  0  0  0  0
  -25.3615   -1.2468  -14.5919 C   0  0  0  0  0  0  0  0  0  0  0  0
  -26.3201   -1.7996  -13.7379 C   0  0  0  0  0  0  0  0  0  0  0  0
  -26.1958   -1.6697  -12.3573 C   0  0  0  0  0  0  0  0  0  0  0  0
  -25.1174   -0.9800  -11.7966 C   0  0  0  0  0  0  0  0  0  0  0  0
  -24.1561   -0.4405  -12.6652 C   0  0  0  0  0  0  0  0  0  0  0  0
  -22.7318    0.4364  -12.2881 S   0  0  0  0  0  0  0  0  0  0  0  0
  -12.2155    5.2220  -18.6847 O   0  0  0  0  0  0  0  0  0  0  0  0
  -12.0517    4.8187  -20.0370 C   0  0  0  0  0  0  0  0  0  0  0  0
  -11.1776    3.5805  -20.1546 C   0  0  0  0  0  0  0  0  0  0  0  0
  -11.9541    2.5402  -20.9724 C   0  0  0  0  0  0  0  0  0  0  0  0
  -11.6130    1.1525  -20.6602 N   0  0  0  0  0  0  0  0  0  0  0  0
  -11.6784    0.9287  -19.2009 C   0  0  0  0  0  0  0  0  0  0  0  0
  -11.3157   -0.5269  -18.8330 C   0  0  0  0  0  0  0  0  0  0  0  0
  -12.1361   -1.5544  -19.5054 N   0  0  0  0  0  0  0  0  0  0  0  0
  -13.4870   -1.6118  -18.9531 C   0  0  0  0  0  0  0  0  0  0  0  0
  -12.1571   -1.2774  -20.9559 C   0  0  0  0  0  0  0  0  0  0  0  0
  -12.4890    0.1831  -21.3438 C   0  0  0  0  0  0  0  0  0  0  0  0
 11 12  1  0  0  0
 12  1  1  0  0  0
  1  2  1  0  0  0
  1 10  2  0  0  0
  2  3  2  0  0  0
  3  4  1  0  0  0
  3  8  1  0  0  0
  4 13  1  0  0  0
  4  5  2  0  0  0
 13 15  1  0  0  0
 13 14  1  0  0  0
 15 16  1  0  0  0
 15 21  2  0  0  0
 16 17  2  0  0  0
 17 18  1  0  0  0
 18 22  1  0  0  0
 18 19  2  0  0  0
 22 23  2  0  0  0
 22 30  1  0  0  0
 23 24  1  0  0  0
 24 25  1  0  0  0
 24 29  2  0  0  0
 25 26  2  0  0  0
 26 27  1  0  0  0
 27 28  2  0  0  0
 28 29  1  0  0  0
 29 30  1  0  0  0
 19 20  1  0  0  0
 19 21  1  0  0  0
  5  6  1  0  0  0
  6  7  2  0  0  0
  7  8  1  0  0  0
  8  9  2  0  0  0
  9 10  1  0  0  0
 10 31  1  0  0  0
 31 32  1  0  0  0
 32 33  1  0  0  0
 33 34  1  0  0  0
 34 35  1  0  0  0
 35 36  1  0  0  0
 35 41  1  0  0  0
 36 37  1  0  0  0
 37 38  1  0  0  0
 38 39  1  0  0  0
 38 40  1  0  0  0
 40 41  1  0  0  0
M  END
> <minimizedAffinity>
-8.16468

$$$$
