CHEMBL3676356


 33 35  0  0  0  0  0  0  0  0999 V2000
  -27.9488   -9.0150   -8.5353 C   0  0  0  0  0  0  0  0  0  0  0  0
  -28.6035   -7.9306   -7.9421 C   0  0  0  0  0  0  0  0  0  0  0  0
  -28.7664   -7.8513   -6.5448 C   0  0  0  0  0  0  0  0  0  0  0  0
  -29.5228   -6.8830   -5.8708 C   0  0  0  0  0  0  0  0  0  0  0  0
  -29.6850   -6.9226   -4.5362 N   0  0  0  0  0  0  0  0  0  0  0  0
  -29.0742   -7.9037   -3.8714 C   0  0  0  0  0  0  0  0  0  0  0  0
  -28.3030   -8.8470   -4.4111 N   0  0  0  0  0  0  0  0  0  0  0  0
  -28.1659   -8.8145   -5.7369 C   0  0  0  0  0  0  0  0  0  0  0  0
  -27.4117   -9.8100   -6.3331 C   0  0  0  0  0  0  0  0  0  0  0  0
  -27.3225   -9.9734   -7.7307 C   0  0  0  0  0  0  0  0  0  0  0  0
  -28.9849  -10.0400  -10.4691 C   0  0  0  0  0  0  0  0  0  0  0  0
  -29.7739  -10.7007   -9.8139 O   0  0  0  0  0  0  0  0  0  0  0  0
  -28.0477   -9.1514   -9.9401 N   0  0  0  0  0  0  0  0  0  0  0  0
  -27.2364   -8.9085  -10.4888 H   0  0  0  0  0  0  0  0  0  0  0  0
  -27.8711   -9.6447  -12.6055 C   0  0  0  0  0  0  0  0  0  0  0  0
  -28.9074  -10.1678  -11.9465 C   0  0  0  0  0  0  0  0  0  0  0  0
  -30.1218   -5.8249   -6.6064 N   0  0  0  0  0  0  0  0  0  0  0  0
  -31.1309   -5.8251   -6.4636 H   0  0  0  0  0  0  0  0  0  0  0  0
  -29.6258   -4.5051   -6.7171 C   0  0  0  0  0  0  0  0  0  0  0  0
  -28.8841   -4.0734   -7.8271 C   0  0  0  0  0  0  0  0  0  0  0  0
  -28.3452   -2.7898   -7.8802 C   0  0  0  0  0  0  0  0  0  0  0  0
  -27.3624   -2.3923   -9.2432 Cl  0  0  0  0  0  0  0  0  0  0  0  0
  -28.6012   -1.8869   -6.8441 C   0  0  0  0  0  0  0  0  0  0  0  0
  -27.9220   -0.3000   -6.8172 Cl  0  0  0  0  0  0  0  0  0  0  0  0
  -29.4257   -2.2615   -5.7823 C   0  0  0  0  0  0  0  0  0  0  0  0
  -29.9336   -3.5565   -5.7349 C   0  0  0  0  0  0  0  0  0  0  0  0
  -30.7130   -3.9083   -4.7003 F   0  0  0  0  0  0  0  0  0  0  0  0
  -26.7531  -11.1017   -8.3110 O   0  0  0  0  0  0  0  0  0  0  0  0
  -25.7952  -11.7346   -7.4323 C   0  0  0  0  0  0  0  0  0  0  0  0
  -24.3584  -11.8293   -7.9711 C   0  0  0  0  0  0  0  0  0  0  0  0
  -23.3591  -11.4869   -6.9248 N   0  0  0  0  0  0  0  0  0  0  0  0
  -21.9828  -11.4764   -7.4377 C   0  0  0  0  0  0  0  0  0  0  0  0
  -23.6583  -10.1911   -6.3150 C   0  0  0  0  0  0  0  0  0  0  0  0
 15 16  2  0  0  0
 16 11  1  0  0  0
 11 12  2  0  0  0
 11 13  1  0  0  0
 13  1  1  0  0  0
 13 14  1  0  0  0
  1  2  1  0  0  0
  1 10  2  0  0  0
  2  3  2  0  0  0
  3  4  1  0  0  0
  3  8  1  0  0  0
  4 17  1  0  0  0
  4  5  2  0  0  0
 17 19  1  0  0  0
 17 18  1  0  0  0
 19 20  1  0  0  0
 19 26  2  0  0  0
 20 21  2  0  0  0
 21 22  1  0  0  0
 21 23  1  0  0  0
 23 24  1  0  0  0
 23 25  2  0  0  0
 25 26  1  0  0  0
 26 27  1  0  0  0
  5  6  1  0  0  0
  6  7  2  0  0  0
  7  8  1  0  0  0
  8  9  2  0  0  0
  9 10  1  0  0  0
 10 28  1  0  0  0
 28 29  1  0  0  0
 29 30  1  0  0  0
 30 31  1  0  0  0
 31 32  1  0  0  0
 31 33  1  0  0  0
M  END
> <minimizedAffinity>
-7.84068

$$$$
