CHEMBL1090356


 45 51  0  0  0  0  0  0  0  0999 V2000
  -28.8795   -2.7301   -6.7753 C   0  0  0  0  0  0  0  0  0  0  0  0
  -29.1581   -2.1454   -5.5460 N   0  0  0  0  0  0  0  0  0  0  0  0
  -28.7517   -0.9230   -5.6961 C   0  0  0  0  0  0  0  0  0  0  0  0
  -28.7013    0.4660   -4.6557 S   0  0  0  0  0  0  0  0  0  0  0  0
  -27.9616    1.3782   -5.9735 C   0  0  0  0  0  0  0  0  0  0  0  0
  -27.7965    0.6470   -7.0888 C   0  0  0  0  0  0  0  0  0  0  0  0
  -28.2372   -0.6554   -6.9286 N   0  0  0  0  0  0  0  0  0  0  0  0
  -28.3169   -1.8143   -7.6802 C   0  0  0  0  0  0  0  0  0  0  0  0
  -28.6822   -6.3061   -8.0097 C   0  0  0  0  0  0  0  0  0  0  0  0
  -29.6256   -6.9014   -7.1730 C   0  0  0  0  0  0  0  0  0  0  0  0
  -30.3397   -6.1380   -6.2510 C   0  0  0  0  0  0  0  0  0  0  0  0
  -30.1085   -4.7683   -6.1532 C   0  0  0  0  0  0  0  0  0  0  0  0
  -29.1609   -4.1462   -6.9730 C   0  0  0  0  0  0  0  0  0  0  0  0
  -28.4474   -4.9279   -7.8973 C   0  0  0  0  0  0  0  0  0  0  0  0
  -27.7090   -9.1084   -7.9295 O   0  0  0  0  0  0  0  0  0  0  0  0
  -27.4499   -8.3148   -8.8389 C   0  0  0  0  0  0  0  0  0  0  0  0
  -27.9129   -7.0184   -8.9548 N   0  0  0  0  0  0  0  0  0  0  0  0
  -27.7084   -6.5396   -9.8213 H   0  0  0  0  0  0  0  0  0  0  0  0
  -26.4915   -8.7096   -9.9336 C   0  0  0  0  0  0  0  0  0  0  0  0
  -27.1111   -9.2924  -11.1688 C   0  0  0  0  0  0  0  0  0  0  0  0
  -28.2531  -10.0915  -11.0106 C   0  0  0  0  0  0  0  0  0  0  0  0
  -28.9759  -10.5184  -12.1061 C   0  0  0  0  0  0  0  0  0  0  0  0
  -28.5773  -10.1153  -13.3688 C   0  0  0  0  0  0  0  0  0  0  0  0
  -27.4171   -9.3703  -13.5623 C   0  0  0  0  0  0  0  0  0  0  0  0
  -26.6807   -8.9536  -12.4620 C   0  0  0  0  0  0  0  0  0  0  0  0
  -27.9109   -1.9261   -9.0812 C   0  0  0  0  0  0  0  0  0  0  0  0
  -28.8229   -2.0192  -10.1098 C   0  0  0  0  0  0  0  0  0  0  0  0
  -28.2934   -2.1203  -11.3665 C   0  0  0  0  0  0  0  0  0  0  0  0
  -26.9805   -2.0622  -11.6097 N   0  0  0  0  0  0  0  0  0  0  0  0
  -26.1480   -1.9389  -10.5623 C   0  0  0  0  0  0  0  0  0  0  0  0
  -26.5774   -1.9090   -9.2915 N   0  0  0  0  0  0  0  0  0  0  0  0
  -24.7779   -1.8626  -10.7951 N   0  0  0  0  0  0  0  0  0  0  0  0
  -24.2365   -2.3259  -10.0777 H   0  0  0  0  0  0  0  0  0  0  0  0
  -24.0924   -1.1193  -11.7639 C   0  0  0  0  0  0  0  0  0  0  0  0
  -23.1890   -1.7072  -12.6534 C   0  0  0  0  0  0  0  0  0  0  0  0
  -22.4279   -0.9373  -13.5499 C   0  0  0  0  0  0  0  0  0  0  0  0
  -22.5267    0.4563  -13.5914 C   0  0  0  0  0  0  0  0  0  0  0  0
  -23.4360    1.0365  -12.6934 C   0  0  0  0  0  0  0  0  0  0  0  0
  -24.2107    0.2688  -11.8027 C   0  0  0  0  0  0  0  0  0  0  0  0
  -21.8008    1.2358  -14.4687 N   0  0  0  0  0  0  0  0  0  0  0  0
  -20.6871    0.7426  -15.2814 C   0  0  0  0  0  0  0  0  0  0  0  0
  -19.3620    1.4064  -14.9053 C   0  0  0  0  0  0  0  0  0  0  0  0
  -19.4685    2.8349  -14.9591 O   0  0  0  0  0  0  0  0  0  0  0  0
  -20.4995    3.2795  -14.0603 C   0  0  0  0  0  0  0  0  0  0  0  0
  -21.8814    2.7004  -14.4234 C   0  0  0  0  0  0  0  0  0  0  0  0
 15 16  2  0  0  0
 16 19  1  0  0  0
 16 17  1  0  0  0
 19 20  1  0  0  0
 20 21  1  0  0  0
 20 25  2  0  0  0
 21 22  2  0  0  0
 22 23  1  0  0  0
 23 24  2  0  0  0
 24 25  1  0  0  0
 17  9  1  0  0  0
 17 18  1  0  0  0
  9 10  1  0  0  0
  9 14  2  0  0  0
 10 11  2  0  0  0
 11 12  1  0  0  0
 12 13  2  0  0  0
 13  1  1  0  0  0
 13 14  1  0  0  0
  1  2  1  0  0  0
  1  8  2  0  0  0
  2  3  2  0  0  0
  3  4  1  0  0  0
  3  7  1  0  0  0
  4  5  1  0  0  0
  5  6  2  0  0  0
  6  7  1  0  0  0
  7  8  1  0  0  0
  8 26  1  0  0  0
 26 27  1  0  0  0
 26 31  2  0  0  0
 27 28  2  0  0  0
 28 29  1  0  0  0
 29 30  2  0  0  0
 30 32  1  0  0  0
 30 31  1  0  0  0
 32 34  1  0  0  0
 32 33  1  0  0  0
 34 35  1  0  0  0
 34 39  2  0  0  0
 35 36  2  0  0  0
 36 37  1  0  0  0
 37 40  1  0  0  0
 37 38  2  0  0  0
 40 41  1  0  0  0
 40 45  1  0  0  0
 41 42  1  0  0  0
 42 43  1  0  0  0
 43 44  1  0  0  0
 44 45  1  0  0  0
 38 39  1  0  0  0
M  END
> <minimizedAffinity>
-9.01671

$$$$
