CHEMBL3982619


 25 28  0  0  0  0  0  0  0  0999 V2000
  -16.4135    0.1410  -13.0659 O   0  0  0  0  0  0  0  0  0  0  0  0
  -15.2295   -0.1506  -13.2237 C   0  0  0  0  0  0  0  0  0  0  0  0
  -14.1997    0.9031  -13.5328 C   0  0  0  0  0  0  0  0  0  0  0  0
  -12.6334    0.0541  -13.7502 S   0  0  0  0  0  0  0  0  0  0  0  0
  -13.3352   -1.5227  -13.4616 C   0  0  0  0  0  0  0  0  0  0  0  0
  -12.5551   -2.5487  -13.6304 N   0  0  0  0  0  0  0  0  0  0  0  0
  -14.6701   -1.4139  -13.1171 N   0  0  0  0  0  0  0  0  0  0  0  0
  -15.4702   -2.5158  -12.7281 C   0  0  0  0  0  0  0  0  0  0  0  0
  -16.0516   -3.3350  -13.7014 C   0  0  0  0  0  0  0  0  0  0  0  0
  -16.6223   -4.5543  -13.3356 C   0  0  0  0  0  0  0  0  0  0  0  0
  -16.6453   -4.9446  -11.9960 C   0  0  0  0  0  0  0  0  0  0  0  0
  -16.1468   -4.0948  -11.0130 C   0  0  0  0  0  0  0  0  0  0  0  0
  -15.5768   -2.8730  -11.3738 C   0  0  0  0  0  0  0  0  0  0  0  0
  -13.0853   -3.7885  -13.5417 N   0  0  0  0  0  0  0  0  0  0  0  0
  -13.3368   -4.2826  -14.4005 H   0  0  0  0  0  0  0  0  0  0  0  0
  -12.6531   -4.7336  -12.5942 C   0  0  0  0  0  0  0  0  0  0  0  0
  -11.7658   -4.2489  -11.6864 N   0  0  0  0  0  0  0  0  0  0  0  0
  -11.2289   -5.0493  -10.7275 N   0  0  0  0  0  0  0  0  0  0  0  0
  -11.5928   -6.3414  -10.6836 C   0  0  0  0  0  0  0  0  0  0  0  0
  -12.4756   -6.9183  -11.5899 C   0  0  0  0  0  0  0  0  0  0  0  0
  -12.8121   -8.2811  -11.5060 C   0  0  0  0  0  0  0  0  0  0  0  0
  -13.6675   -8.8635  -12.4403 C   0  0  0  0  0  0  0  0  0  0  0  0
  -14.1770   -8.0958  -13.4756 C   0  0  0  0  0  0  0  0  0  0  0  0
  -13.8504   -6.7417  -13.5606 C   0  0  0  0  0  0  0  0  0  0  0  0
  -13.0140   -6.1033  -12.6059 C   0  0  0  0  0  0  0  0  0  0  0  0
  1  2  2  0  0  0
  2  3  1  0  0  0
  2  7  1  0  0  0
  3  4  1  0  0  0
  4  5  1  0  0  0
  5  6  2  0  0  0
  5  7  1  0  0  0
  6 14  1  0  0  0
 14 16  1  0  0  0
 14 15  1  0  0  0
 16 17  1  0  0  0
 16 25  2  0  0  0
 17 18  2  0  0  0
 18 19  1  0  0  0
 19 20  2  0  0  0
 20 21  1  0  0  0
 20 25  1  0  0  0
 21 22  2  0  0  0
 22 23  1  0  0  0
 23 24  2  0  0  0
 24 25  1  0  0  0
  7  8  1  0  0  0
  8  9  1  0  0  0
  8 13  2  0  0  0
  9 10  2  0  0  0
 10 11  1  0  0  0
 11 12  2  0  0  0
 12 13  1  0  0  0
M  END
> <minimizedAffinity>
-7.05957

$$$$
