CHEMBL1978267


 47 53  0  0  0  0  0  0  0  0999 V2000
  -30.3805   -7.2941   -6.3172 C   0  0  0  0  0  0  0  0  0  0  0  0
  -31.5032   -7.5243   -7.0997 N   0  0  0  0  0  0  0  0  0  0  0  0
  -31.5541   -8.8201   -7.1756 C   0  0  0  0  0  0  0  0  0  0  0  0
  -32.6238   -9.9454   -7.9588 S   0  0  0  0  0  0  0  0  0  0  0  0
  -31.6510  -11.2684   -7.3048 C   0  0  0  0  0  0  0  0  0  0  0  0
  -30.6255  -10.8408   -6.5494 C   0  0  0  0  0  0  0  0  0  0  0  0
  -30.5689   -9.4607   -6.4866 N   0  0  0  0  0  0  0  0  0  0  0  0
  -29.7799   -8.4948   -5.8983 C   0  0  0  0  0  0  0  0  0  0  0  0
  -29.0251   -3.3059   -5.2753 C   0  0  0  0  0  0  0  0  0  0  0  0
  -29.3281   -4.2839   -4.3051 C   0  0  0  0  0  0  0  0  0  0  0  0
  -29.7865   -5.5684   -4.6464 C   0  0  0  0  0  0  0  0  0  0  0  0
  -29.9609   -5.9347   -5.9801 C   0  0  0  0  0  0  0  0  0  0  0  0
  -29.6937   -4.9768   -6.9590 C   0  0  0  0  0  0  0  0  0  0  0  0
  -29.1776   -3.7121   -6.6271 C   0  0  0  0  0  0  0  0  0  0  0  0
  -28.6891   -2.8928   -7.6748 N   0  0  0  0  0  0  0  0  0  0  0  0
  -27.7691   -3.3327   -8.6080 C   0  0  0  0  0  0  0  0  0  0  0  0
  -27.3050   -4.4676   -8.6686 O   0  0  0  0  0  0  0  0  0  0  0  0
  -29.2583   -2.0835   -7.8855 H   0  0  0  0  0  0  0  0  0  0  0  0
  -27.4052   -2.3680   -9.6772 C   0  0  0  0  0  0  0  0  0  0  0  0
  -26.2736   -2.5396  -10.4812 C   0  0  0  0  0  0  0  0  0  0  0  0
  -26.0312   -1.6470  -11.5308 C   0  0  0  0  0  0  0  0  0  0  0  0
  -26.9076   -0.5861  -11.7716 C   0  0  0  0  0  0  0  0  0  0  0  0
  -28.0298   -0.4090  -10.9647 C   0  0  0  0  0  0  0  0  0  0  0  0
  -28.2804   -1.3004   -9.9221 C   0  0  0  0  0  0  0  0  0  0  0  0
  -27.2381   -1.6263   -5.1827 C   0  0  0  0  0  0  0  0  0  0  0  0
  -28.6412   -1.9881   -4.9203 N   0  0  0  0  0  0  0  0  0  0  0  0
  -29.5967   -0.8989   -5.1404 C   0  0  0  0  0  0  0  0  0  0  0  0
  -28.6563   -8.7689   -5.0070 C   0  0  0  0  0  0  0  0  0  0  0  0
  -28.7983   -8.9093   -3.6446 C   0  0  0  0  0  0  0  0  0  0  0  0
  -27.6414   -9.1339   -2.9456 C   0  0  0  0  0  0  0  0  0  0  0  0
  -26.4469   -9.2669   -3.5319 N   0  0  0  0  0  0  0  0  0  0  0  0
  -26.4014   -9.1624   -4.8698 C   0  0  0  0  0  0  0  0  0  0  0  0
  -27.4696   -8.8863   -5.6247 N   0  0  0  0  0  0  0  0  0  0  0  0
  -25.1831   -9.3735   -5.5323 N   0  0  0  0  0  0  0  0  0  0  0  0
  -24.4507   -9.4108   -4.8322 H   0  0  0  0  0  0  0  0  0  0  0  0
  -24.9916  -10.2735   -6.5993 C   0  0  0  0  0  0  0  0  0  0  0  0
  -23.8881  -11.1252   -6.5928 C   0  0  0  0  0  0  0  0  0  0  0  0
  -23.6804  -12.0024   -7.6549 C   0  0  0  0  0  0  0  0  0  0  0  0
  -24.6027  -12.0677   -8.7042 C   0  0  0  0  0  0  0  0  0  0  0  0
  -25.7510  -11.2701   -8.7217 C   0  0  0  0  0  0  0  0  0  0  0  0
  -25.9114  -10.3740   -7.6579 C   0  0  0  0  0  0  0  0  0  0  0  0
  -26.7033  -11.3661   -9.7117 N   0  0  0  0  0  0  0  0  0  0  0  0
  -26.9491  -10.2942  -10.6805 C   0  0  0  0  0  0  0  0  0  0  0  0
  -28.3932   -9.7997  -10.5495 C   0  0  0  0  0  0  0  0  0  0  0  0
  -29.3295  -10.8811  -10.7049 O   0  0  0  0  0  0  0  0  0  0  0  0
  -29.1078  -11.8820   -9.6940 C   0  0  0  0  0  0  0  0  0  0  0  0
  -27.6811  -12.4631   -9.7538 C   0  0  0  0  0  0  0  0  0  0  0  0
 25 26  1  0  0  0
 26 27  1  0  0  0
 26  9  1  0  0  0
  9 10  1  0  0  0
  9 14  2  0  0  0
 10 11  2  0  0  0
 11 12  1  0  0  0
 12  1  1  0  0  0
 12 13  2  0  0  0
  1  2  1  0  0  0
  1  8  2  0  0  0
  2  3  2  0  0  0
  3  4  1  0  0  0
  3  7  1  0  0  0
  4  5  1  0  0  0
  5  6  2  0  0  0
  6  7  1  0  0  0
  7  8  1  0  0  0
  8 28  1  0  0  0
 28 29  1  0  0  0
 28 33  2  0  0  0
 29 30  2  0  0  0
 30 31  1  0  0  0
 31 32  2  0  0  0
 32 34  1  0  0  0
 32 33  1  0  0  0
 34 36  1  0  0  0
 34 35  1  0  0  0
 36 37  1  0  0  0
 36 41  2  0  0  0
 37 38  2  0  0  0
 38 39  1  0  0  0
 39 40  2  0  0  0
 40 42  1  0  0  0
 40 41  1  0  0  0
 42 43  1  0  0  0
 42 47  1  0  0  0
 43 44  1  0  0  0
 44 45  1  0  0  0
 45 46  1  0  0  0
 46 47  1  0  0  0
 13 14  1  0  0  0
 14 15  1  0  0  0
 15 16  1  0  0  0
 15 18  1  0  0  0
 16 17  2  0  0  0
 16 19  1  0  0  0
 19 20  1  0  0  0
 19 24  2  0  0  0
 20 21  2  0  0  0
 21 22  1  0  0  0
 22 23  2  0  0  0
 23 24  1  0  0  0
M  END
> <minimizedAffinity>
-7.88202

$$$$
