CHEMBL3955486


 34 38  0  0  0  0  0  0  0  0999 V2000
  -29.4512   -5.1929   -7.2255 C   0  0  0  0  0  0  0  0  0  0  0  0
  -28.8701   -4.2500   -8.0773 C   0  0  0  0  0  0  0  0  0  0  0  0
  -28.5017   -2.9662   -7.6358 C   0  0  0  0  0  0  0  0  0  0  0  0
  -27.9017   -2.0046   -8.4721 C   0  0  0  0  0  0  0  0  0  0  0  0
  -27.4431   -0.8357   -8.0031 N   0  0  0  0  0  0  0  0  0  0  0  0
  -27.6489   -0.6079   -6.7006 C   0  0  0  0  0  0  0  0  0  0  0  0
  -28.2601   -1.4296   -5.8294 N   0  0  0  0  0  0  0  0  0  0  0  0
  -28.6790   -2.6114   -6.3002 C   0  0  0  0  0  0  0  0  0  0  0  0
  -29.3043   -3.5447   -5.4655 C   0  0  0  0  0  0  0  0  0  0  0  0
  -29.7267   -4.8131   -5.9106 C   0  0  0  0  0  0  0  0  0  0  0  0
  -28.6576   -7.1820   -8.2641 C   0  0  0  0  0  0  0  0  0  0  0  0
  -29.7186   -6.4724   -7.6269 O   0  0  0  0  0  0  0  0  0  0  0  0
  -27.8363   -2.2833   -9.8603 N   0  0  0  0  0  0  0  0  0  0  0  0
  -28.7695   -2.4207  -10.2383 H   0  0  0  0  0  0  0  0  0  0  0  0
  -26.9150   -1.8442  -10.8343 C   0  0  0  0  0  0  0  0  0  0  0  0
  -25.5734   -1.5999  -10.5243 C   0  0  0  0  0  0  0  0  0  0  0  0
  -24.6483   -1.3508  -11.5408 C   0  0  0  0  0  0  0  0  0  0  0  0
  -25.0646   -1.3283  -12.8688 C   0  0  0  0  0  0  0  0  0  0  0  0
  -24.1457   -1.1250  -13.8261 F   0  0  0  0  0  0  0  0  0  0  0  0
  -26.3989   -1.5355  -13.2026 C   0  0  0  0  0  0  0  0  0  0  0  0
  -26.9106   -1.4917  -14.8428 Cl  0  0  0  0  0  0  0  0  0  0  0  0
  -27.3100   -1.8068  -12.1830 C   0  0  0  0  0  0  0  0  0  0  0  0
  -28.5993   -2.0562  -12.4769 F   0  0  0  0  0  0  0  0  0  0  0  0
  -30.2480   -5.6119   -4.9262 O   0  0  0  0  0  0  0  0  0  0  0  0
  -29.4546   -6.6447   -4.3177 C   0  0  0  0  0  0  0  0  0  0  0  0
  -27.9859   -6.5411   -4.7045 C   0  0  0  0  0  0  0  0  0  0  0  0
  -27.5471   -7.9671   -4.8830 C   0  0  0  0  0  0  0  0  0  0  0  0
  -26.6809   -8.4042   -3.8247 O   0  0  0  0  0  0  0  0  0  0  0  0
  -26.9884   -9.7939   -3.6434 C   0  0  0  0  0  0  0  0  0  0  0  0
  -28.5025   -9.8732   -3.7554 C   0  0  0  0  0  0  0  0  0  0  0  0
  -28.8005   -8.8217   -4.8249 C   0  0  0  0  0  0  0  0  0  0  0  0
  -29.9162   -7.9936   -4.4681 O   0  0  0  0  0  0  0  0  0  0  0  0
  -28.8942  -11.1955   -4.1265 O   0  0  0  0  0  0  0  0  0  0  0  0
  -29.7330  -11.8071   -3.1534 C   0  0  0  0  0  0  0  0  0  0  0  0
 11 12  1  0  0  0
 12  1  1  0  0  0
  1  2  1  0  0  0
  1 10  2  0  0  0
  2  3  2  0  0  0
  3  4  1  0  0  0
  3  8  1  0  0  0
  4 13  1  0  0  0
  4  5  2  0  0  0
 13 15  1  0  0  0
 13 14  1  0  0  0
 15 16  1  0  0  0
 15 22  2  0  0  0
 16 17  2  0  0  0
 17 18  1  0  0  0
 18 19  1  0  0  0
 18 20  2  0  0  0
 20 21  1  0  0  0
 20 22  1  0  0  0
 22 23  1  0  0  0
  5  6  1  0  0  0
  6  7  2  0  0  0
  7  8  1  0  0  0
  8  9  2  0  0  0
  9 10  1  0  0  0
 10 24  1  0  0  0
 24 25  1  0  0  0
 25 26  1  0  0  0
 25 32  1  0  0  0
 26 27  1  0  0  0
 27 28  1  0  0  0
 27 31  1  0  0  0
 28 29  1  0  0  0
 29 30  1  0  0  0
 30 33  1  0  0  0
 30 31  1  0  0  0
 33 34  1  0  0  0
 31 32  1  0  0  0
M  END
> <minimizedAffinity>
-8.99414

$$$$
