CHEMBL194366


 33 36  0  0  0  0  0  0  0  0999 V2000
  -14.3045   -4.2692  -12.6148 C   0  0  0  0  0  0  0  0  0  0  0  0
  -14.8909   -3.2988  -13.4329 C   0  0  0  0  0  0  0  0  0  0  0  0
  -14.1964   -2.1604  -13.8482 C   0  0  0  0  0  0  0  0  0  0  0  0
  -12.8882   -1.9830  -13.3976 C   0  0  0  0  0  0  0  0  0  0  0  0
  -12.2656   -2.9769  -12.6234 C   0  0  0  0  0  0  0  0  0  0  0  0
  -12.9605   -4.1274  -12.2118 C   0  0  0  0  0  0  0  0  0  0  0  0
  -12.3018   -5.1432  -11.3680 C   0  0  0  0  0  0  0  0  0  0  0  0
  -11.9136   -4.8064  -10.0785 C   0  0  0  0  0  0  0  0  0  0  0  0
  -11.0352   -6.0331   -9.2932 S   0  0  0  0  0  0  0  0  0  0  0  0
  -11.2265   -7.0799  -10.6169 C   0  0  0  0  0  0  0  0  0  0  0  0
  -10.6988   -8.3135  -10.5534 N   0  0  0  0  0  0  0  0  0  0  0  0
  -10.9481   -9.0284  -11.6469 C   0  0  0  0  0  0  0  0  0  0  0  0
  -11.6316   -8.6412  -12.7307 N   0  0  0  0  0  0  0  0  0  0  0  0
  -12.1297   -7.3908  -12.7706 C   0  0  0  0  0  0  0  0  0  0  0  0
  -12.8053   -7.0732  -13.9439 N   0  0  0  0  0  0  0  0  0  0  0  0
  -11.9417   -6.5227  -11.6729 C   0  0  0  0  0  0  0  0  0  0  0  0
  -12.6366   -7.8020  -14.6297 H   0  0  0  0  0  0  0  0  0  0  0  0
  -12.6229   -6.1324  -14.2689 H   0  0  0  0  0  0  0  0  0  0  0  0
  -14.7567   -1.2083  -14.7347 N   0  0  0  0  0  0  0  0  0  0  0  0
  -15.7616   -0.3091  -14.3997 C   0  0  0  0  0  0  0  0  0  0  0  0
  -16.2552   -0.1897  -13.2857 O   0  0  0  0  0  0  0  0  0  0  0  0
  -16.2139    0.4053  -15.4998 N   0  0  0  0  0  0  0  0  0  0  0  0
  -14.4756   -1.2532  -15.7017 H   0  0  0  0  0  0  0  0  0  0  0  0
  -16.1915   -0.0925  -16.3752 H   0  0  0  0  0  0  0  0  0  0  0  0
  -17.2568    1.3545  -15.3582 C   0  0  0  0  0  0  0  0  0  0  0  0
  -16.9819    2.7011  -15.5885 C   0  0  0  0  0  0  0  0  0  0  0  0
  -18.0141    3.6416  -15.5648 C   0  0  0  0  0  0  0  0  0  0  0  0
  -19.3192    3.2493  -15.2625 C   0  0  0  0  0  0  0  0  0  0  0  0
  -19.6042    1.9077  -14.9867 C   0  0  0  0  0  0  0  0  0  0  0  0
  -20.9961    1.4655  -14.6523 C   0  0  0  0  0  0  0  0  0  0  0  0
  -18.5691    0.9671  -15.0392 C   0  0  0  0  0  0  0  0  0  0  0  0
  -16.3431   -5.2449  -11.8365 C   0  0  0  0  0  0  0  0  0  0  0  0
  -14.9824   -5.3996  -12.2230 O   0  0  0  0  0  0  0  0  0  0  0  0
 32 33  1  0  0  0
 33  1  1  0  0  0
  1  2  1  0  0  0
  1  6  2  0  0  0
  2  3  2  0  0  0
  3 19  1  0  0  0
  3  4  1  0  0  0
 19 20  1  0  0  0
 19 23  1  0  0  0
 20 21  2  0  0  0
 20 22  1  0  0  0
 22 25  1  0  0  0
 22 24  1  0  0  0
 25 26  1  0  0  0
 25 31  2  0  0  0
 26 27  2  0  0  0
 27 28  1  0  0  0
 28 29  2  0  0  0
 29 30  1  0  0  0
 29 31  1  0  0  0
  4  5  2  0  0  0
  5  6  1  0  0  0
  6  7  1  0  0  0
  7  8  2  0  0  0
  7 16  1  0  0  0
  8  9  1  0  0  0
  9 10  1  0  0  0
 10 11  1  0  0  0
 10 16  2  0  0  0
 11 12  2  0  0  0
 12 13  1  0  0  0
 13 14  2  0  0  0
 14 15  1  0  0  0
 14 16  1  0  0  0
 15 17  1  0  0  0
 15 18  1  0  0  0
M  END
> <minimizedAffinity>
-8.30786

$$$$
