CHEMBL3924928


 38 41  0  0  0  0  0  0  0  0999 V2000
  -25.3803   -1.8087  -11.9780 C   0  0  0  0  0  0  0  0  0  0  0  0
  -24.1006   -1.6347  -11.4410 C   0  0  0  0  0  0  0  0  0  0  0  0
  -23.0375   -1.2121  -12.2470 C   0  0  0  0  0  0  0  0  0  0  0  0
  -23.2465   -0.9359  -13.5971 C   0  0  0  0  0  0  0  0  0  0  0  0
  -24.5289   -1.0683  -14.1347 C   0  0  0  0  0  0  0  0  0  0  0  0
  -25.5842   -1.4716  -13.3180 C   0  0  0  0  0  0  0  0  0  0  0  0
  -26.8080   -1.6017  -13.8552 F   0  0  0  0  0  0  0  0  0  0  0  0
  -26.2291   -1.1314   -9.3332 O   0  0  0  0  0  0  0  0  0  0  0  0
  -26.7974   -2.0212   -9.9555 C   0  0  0  0  0  0  0  0  0  0  0  0
  -27.7859   -2.8327   -9.4169 N   0  0  0  0  0  0  0  0  0  0  0  0
  -26.4725   -2.3648  -11.2578 N   0  0  0  0  0  0  0  0  0  0  0  0
  -28.0411   -3.6575   -9.9393 H   0  0  0  0  0  0  0  0  0  0  0  0
  -26.8450   -3.2251  -11.6371 H   0  0  0  0  0  0  0  0  0  0  0  0
  -28.2632   -2.7371   -8.0839 C   0  0  0  0  0  0  0  0  0  0  0  0
  -28.7820   -3.8272   -7.3847 C   0  0  0  0  0  0  0  0  0  0  0  0
  -29.3064   -3.6741   -6.1014 C   0  0  0  0  0  0  0  0  0  0  0  0
  -29.3114   -2.4259   -5.4799 C   0  0  0  0  0  0  0  0  0  0  0  0
  -30.0023   -2.3647   -3.9016 Cl  0  0  0  0  0  0  0  0  0  0  0  0
  -28.7722   -1.3162   -6.1388 C   0  0  0  0  0  0  0  0  0  0  0  0
  -28.2345   -1.4945   -7.4422 C   0  0  0  0  0  0  0  0  0  0  0  0
  -28.7323    0.0718   -5.5546 C   0  0  0  0  0  0  0  0  0  0  0  0
  -29.9131    0.5931   -5.1345 F   0  0  0  0  0  0  0  0  0  0  0  0
  -27.8988    0.1393   -4.4767 F   0  0  0  0  0  0  0  0  0  0  0  0
  -28.2376    0.9779   -6.4483 F   0  0  0  0  0  0  0  0  0  0  0  0
  -22.1282   -0.6393  -14.3450 O   0  0  0  0  0  0  0  0  0  0  0  0
  -21.7332    0.6898  -14.4386 C   0  0  0  0  0  0  0  0  0  0  0  0
  -20.5118    0.9333  -15.0321 C   0  0  0  0  0  0  0  0  0  0  0  0
  -20.1269    2.2572  -15.0796 C   0  0  0  0  0  0  0  0  0  0  0  0
  -20.9069    3.2348  -14.6030 N   0  0  0  0  0  0  0  0  0  0  0  0
  -22.0632    2.8886  -14.0375 C   0  0  0  0  0  0  0  0  0  0  0  0
  -22.5174    1.6443  -13.9110 N   0  0  0  0  0  0  0  0  0  0  0  0
  -18.8714    2.5780  -15.6285 N   0  0  0  0  0  0  0  0  0  0  0  0
  -17.6692    2.2321  -15.0449 C   0  0  0  0  0  0  0  0  0  0  0  0
  -17.5071    1.6543  -13.9778 O   0  0  0  0  0  0  0  0  0  0  0  0
  -18.8543    3.0640  -16.5094 H   0  0  0  0  0  0  0  0  0  0  0  0
  -16.4294    2.5983  -15.7904 C   0  0  0  0  0  0  0  0  0  0  0  0
  -15.6109    1.5147  -16.4511 C   0  0  0  0  0  0  0  0  0  0  0  0
  -15.0063    2.3518  -15.3605 C   0  0  0  0  0  0  0  0  0  0  0  0
  8  9  2  0  0  0
  9 10  1  0  0  0
  9 11  1  0  0  0
 10 14  1  0  0  0
 10 12  1  0  0  0
 14 15  1  0  0  0
 14 20  2  0  0  0
 15 16  2  0  0  0
 16 17  1  0  0  0
 17 18  1  0  0  0
 17 19  2  0  0  0
 19 21  1  0  0  0
 19 20  1  0  0  0
 21 22  1  0  0  0
 21 23  1  0  0  0
 21 24  1  0  0  0
 11  1  1  0  0  0
 11 13  1  0  0  0
  1  2  1  0  0  0
  1  6  2  0  0  0
  2  3  2  0  0  0
  3  4  1  0  0  0
  4 25  1  0  0  0
  4  5  2  0  0  0
 25 26  1  0  0  0
 26 27  1  0  0  0
 26 31  2  0  0  0
 27 28  2  0  0  0
 28 32  1  0  0  0
 28 29  1  0  0  0
 32 33  1  0  0  0
 32 35  1  0  0  0
 33 34  2  0  0  0
 33 36  1  0  0  0
 36 37  1  0  0  0
 36 38  1  0  0  0
 37 38  1  0  0  0
 29 30  2  0  0  0
 30 31  1  0  0  0
  5  6  1  0  0  0
  6  7  1  0  0  0
M  END
> <minimizedAffinity>
-12.15883

$$$$
