CHEMBL475820


 44 48  0  0  0  0  0  0  0  0999 V2000
  -30.5225    2.2891   -7.3514 N   0  0  0  0  0  0  0  0  0  0  0  0
  -31.8813    2.2071   -7.5922 C   0  0  0  0  0  0  0  0  0  0  0  0
  -32.6036    1.2855   -7.2236 O   0  0  0  0  0  0  0  0  0  0  0  0
  -29.9906    3.0091   -7.8146 H   0  0  0  0  0  0  0  0  0  0  0  0
  -27.2340   -1.4165   -4.4649 C   0  0  0  0  0  0  0  0  0  0  0  0
  -28.1386   -0.5064   -5.2492 C   0  0  0  0  0  0  0  0  0  0  0  0
  -28.7889    0.5258   -4.5495 C   0  0  0  0  0  0  0  0  0  0  0  0
  -29.6064    1.4455   -5.2075 C   0  0  0  0  0  0  0  0  0  0  0  0
  -29.7544    1.3843   -6.5851 C   0  0  0  0  0  0  0  0  0  0  0  0
  -29.1096    0.3546   -7.2749 C   0  0  0  0  0  0  0  0  0  0  0  0
  -28.3779   -0.6623   -6.6298 C   0  0  0  0  0  0  0  0  0  0  0  0
  -27.8987   -1.7859   -7.3369 N   0  0  0  0  0  0  0  0  0  0  0  0
  -26.9054   -1.8209   -7.5161 H   0  0  0  0  0  0  0  0  0  0  0  0
  -28.4086   -3.0905   -7.4000 C   0  0  0  0  0  0  0  0  0  0  0  0
  -27.8516   -4.0080   -8.2019 N   0  0  0  0  0  0  0  0  0  0  0  0
  -28.3640   -5.2526   -8.2154 C   0  0  0  0  0  0  0  0  0  0  0  0
  -29.4395   -5.6649   -7.4611 C   0  0  0  0  0  0  0  0  0  0  0  0
  -29.9616   -4.6382   -6.6921 C   0  0  0  0  0  0  0  0  0  0  0  0
  -29.4744   -3.3694   -6.6368 N   0  0  0  0  0  0  0  0  0  0  0  0
  -29.9317   -7.0506   -7.4646 C   0  0  0  0  0  0  0  0  0  0  0  0
  -31.2395   -7.3800   -7.0812 C   0  0  0  0  0  0  0  0  0  0  0  0
  -31.6611   -8.7103   -7.0549 C   0  0  0  0  0  0  0  0  0  0  0  0
  -30.7587   -9.6953   -7.4103 C   0  0  0  0  0  0  0  0  0  0  0  0
  -29.4917   -9.4376   -7.7855 N   0  0  0  0  0  0  0  0  0  0  0  0
  -29.1151   -8.1354   -7.8063 C   0  0  0  0  0  0  0  0  0  0  0  0
  -32.5177    3.3099   -8.3766 C   0  0  0  0  0  0  0  0  0  0  0  0
  -32.0756    4.6387   -8.3761 C   0  0  0  0  0  0  0  0  0  0  0  0
  -32.7693    5.6044   -9.1165 C   0  0  0  0  0  0  0  0  0  0  0  0
  -33.9135    5.2619   -9.8552 C   0  0  0  0  0  0  0  0  0  0  0  0
  -34.3476    3.9375   -9.8768 C   0  0  0  0  0  0  0  0  0  0  0  0
  -33.6522    2.9738   -9.1392 C   0  0  0  0  0  0  0  0  0  0  0  0
  -34.5982    6.3363  -10.6242 C   0  0  0  0  0  0  0  0  0  0  0  0
  -35.8183    6.3947  -10.5430 O   0  0  0  0  0  0  0  0  0  0  0  0
  -33.7855    7.1294  -11.4180 N   0  0  0  0  0  0  0  0  0  0  0  0
  -32.8091    6.8897  -11.5196 H   0  0  0  0  0  0  0  0  0  0  0  0
  -34.2228    8.1962  -12.2428 C   0  0  0  0  0  0  0  0  0  0  0  0
  -34.9972    7.9811  -13.3886 C   0  0  0  0  0  0  0  0  0  0  0  0
  -35.4241    9.0514  -14.1749 C   0  0  0  0  0  0  0  0  0  0  0  0
  -35.1043   10.3528  -13.8080 C   0  0  0  0  0  0  0  0  0  0  0  0
  -34.3592   10.5850  -12.6507 C   0  0  0  0  0  0  0  0  0  0  0  0
  -33.8712    9.5169  -11.8829 C   0  0  0  0  0  0  0  0  0  0  0  0
  -33.1667    9.7982  -10.6886 N   0  0  0  0  0  0  0  0  0  0  0  0
  -32.8166   10.7536  -10.6677 H   0  0  0  0  0  0  0  0  0  0  0  0
  -32.4078    9.1453  -10.5278 H   0  0  0  0  0  0  0  0  0  0  0  0
  5  6  1  0  0  0
  6  7  1  0  0  0
  6 11  2  0  0  0
  7  8  2  0  0  0
  8  9  1  0  0  0
  9  1  1  0  0  0
  9 10  2  0  0  0
  1  2  1  0  0  0
  1  4  1  0  0  0
  2  3  2  0  0  0
  2 26  1  0  0  0
 26 27  1  0  0  0
 26 31  2  0  0  0
 27 28  2  0  0  0
 28 29  1  0  0  0
 29 32  1  0  0  0
 29 30  2  0  0  0
 32 33  2  0  0  0
 32 34  1  0  0  0
 34 36  1  0  0  0
 34 35  1  0  0  0
 36 37  1  0  0  0
 36 41  2  0  0  0
 37 38  2  0  0  0
 38 39  1  0  0  0
 39 40  2  0  0  0
 40 41  1  0  0  0
 41 42  1  0  0  0
 42 43  1  0  0  0
 42 44  1  0  0  0
 30 31  1  0  0  0
 10 11  1  0  0  0
 11 12  1  0  0  0
 12 14  1  0  0  0
 12 13  1  0  0  0
 14 15  1  0  0  0
 14 19  2  0  0  0
 15 16  2  0  0  0
 16 17  1  0  0  0
 17 20  1  0  0  0
 17 18  2  0  0  0
 20 21  1  0  0  0
 20 25  2  0  0  0
 21 22  2  0  0  0
 22 23  1  0  0  0
 23 24  2  0  0  0
 24 25  1  0  0  0
 18 19  1  0  0  0
M  END
> <minimizedAffinity>
-5.92904

$$$$
