CHEMBL1488812


 23 25  0  0  0  0  0  0  0  0999 V2000
  -29.4982   -4.6715   -4.0424 C   0  0  0  0  0  0  0  0  0  0  0  0
  -29.2134   -5.5574   -5.0868 C   0  0  0  0  0  0  0  0  0  0  0  0
  -30.1995   -6.4202   -5.5614 C   0  0  0  0  0  0  0  0  0  0  0  0
  -31.4268   -6.4357   -4.9864 N   0  0  0  0  0  0  0  0  0  0  0  0
  -31.7121   -5.6000   -3.9403 N   0  0  0  0  0  0  0  0  0  0  0  0
  -30.7658   -4.7459   -3.5069 C   0  0  0  0  0  0  0  0  0  0  0  0
  -31.1618   -3.9375   -2.4882 O   0  0  0  0  0  0  0  0  0  0  0  0
  -32.0859   -4.2237   -2.3727 H   0  0  0  0  0  0  0  0  0  0  0  0
  -30.0066   -7.2834   -6.7435 C   0  0  0  0  0  0  0  0  0  0  0  0
  -30.9760   -8.2265   -7.1430 C   0  0  0  0  0  0  0  0  0  0  0  0
  -30.7478   -9.0923   -8.2169 C   0  0  0  0  0  0  0  0  0  0  0  0
  -29.5484   -9.0187   -8.9116 C   0  0  0  0  0  0  0  0  0  0  0  0
  -29.3236   -9.8600   -9.9290 F   0  0  0  0  0  0  0  0  0  0  0  0
  -28.5804   -8.0901   -8.5629 C   0  0  0  0  0  0  0  0  0  0  0  0
  -28.8105   -7.2250   -7.4874 C   0  0  0  0  0  0  0  0  0  0  0  0
  -28.4876   -3.6422   -3.6101 C   0  0  0  0  0  0  0  0  0  0  0  0
  -28.7121    1.3809   -6.5680 C   0  0  0  0  0  0  0  0  0  0  0  0
  -28.6507    0.0715   -5.8396 C   0  0  0  0  0  0  0  0  0  0  0  0
  -27.4391   -0.6101   -5.6811 C   0  0  0  0  0  0  0  0  0  0  0  0
  -27.3904   -1.8171   -4.9780 C   0  0  0  0  0  0  0  0  0  0  0  0
  -28.5529   -2.3686   -4.4245 C   0  0  0  0  0  0  0  0  0  0  0  0
  -29.7667   -1.6908   -4.5950 C   0  0  0  0  0  0  0  0  0  0  0  0
  -29.8153   -0.4849   -5.2997 C   0  0  0  0  0  0  0  0  0  0  0  0
 17 18  1  0  0  0
 18 19  1  0  0  0
 18 23  2  0  0  0
 19 20  2  0  0  0
 20 21  1  0  0  0
 21 16  1  0  0  0
 21 22  2  0  0  0
 16  1  1  0  0  0
  1  2  1  0  0  0
  1  6  2  0  0  0
  2  3  2  0  0  0
  3  9  1  0  0  0
  3  4  1  0  0  0
  9 10  1  0  0  0
  9 15  2  0  0  0
 10 11  2  0  0  0
 11 12  1  0  0  0
 12 13  1  0  0  0
 12 14  2  0  0  0
 14 15  1  0  0  0
  4  5  2  0  0  0
  5  6  1  0  0  0
  6  7  1  0  0  0
  7  8  1  0  0  0
 22 23  1  0  0  0
M  END
> <minimizedAffinity>
-8.75035

$$$$
