CHEMBL3945421


 41 45  0  0  0  0  0  0  0  0999 V2000
  -15.8054    0.4383  -14.5231 C   0  0  0  0  0  0  0  0  0  0  0  0
  -16.7436    0.6794  -13.5101 C   0  0  0  0  0  0  0  0  0  0  0  0
  -17.7943    1.5784  -13.6930 C   0  0  0  0  0  0  0  0  0  0  0  0
  -17.9295    2.2917  -14.8865 C   0  0  0  0  0  0  0  0  0  0  0  0
  -17.0137    2.0279  -15.9197 C   0  0  0  0  0  0  0  0  0  0  0  0
  -15.9577    1.1130  -15.7384 C   0  0  0  0  0  0  0  0  0  0  0  0
  -12.5843   -3.1669  -12.8837 C   0  0  0  0  0  0  0  0  0  0  0  0
  -11.6595   -3.8199  -13.6278 N   0  0  0  0  0  0  0  0  0  0  0  0
  -11.4674   -3.4505  -14.9084 C   0  0  0  0  0  0  0  0  0  0  0  0
  -12.0817   -2.4675  -15.5775 N   0  0  0  0  0  0  0  0  0  0  0  0
  -12.9837   -1.8467  -14.8087 C   0  0  0  0  0  0  0  0  0  0  0  0
  -13.7835   -0.8252  -15.2302 N   0  0  0  0  0  0  0  0  0  0  0  0
  -14.6883   -0.4712  -14.2508 C   0  0  0  0  0  0  0  0  0  0  0  0
  -14.3383   -1.2097  -13.1239 C   0  0  0  0  0  0  0  0  0  0  0  0
  -13.2931   -2.1151  -13.4876 C   0  0  0  0  0  0  0  0  0  0  0  0
  -13.7561   -0.4537  -16.1671 H   0  0  0  0  0  0  0  0  0  0  0  0
  -12.7855   -3.5090  -11.5324 N   0  0  0  0  0  0  0  0  0  0  0  0
  -12.0713   -4.2022  -11.3237 H   0  0  0  0  0  0  0  0  0  0  0  0
  -14.4016   -4.0257   -9.7563 C   0  0  0  0  0  0  0  0  0  0  0  0
  -14.1081   -4.1034  -11.2575 C   0  0  0  0  0  0  0  0  0  0  0  0
  -14.1380   -5.5448  -11.7572 C   0  0  0  0  0  0  0  0  0  0  0  0
  -15.0546   -5.9121  -12.7582 C   0  0  0  0  0  0  0  0  0  0  0  0
  -15.1187   -7.2264  -13.2239 C   0  0  0  0  0  0  0  0  0  0  0  0
  -14.2641   -8.1923  -12.7001 C   0  0  0  0  0  0  0  0  0  0  0  0
  -13.3389   -7.8425  -11.7177 C   0  0  0  0  0  0  0  0  0  0  0  0
  -13.2732   -6.5271  -11.2504 C   0  0  0  0  0  0  0  0  0  0  0  0
  -19.0708    3.2754  -15.0461 C   0  0  0  0  0  0  0  0  0  0  0  0
  -20.3762    2.8042  -15.5212 N   0  0  0  0  0  0  0  0  0  0  0  0
  -21.5424    3.2164  -14.7438 C   0  0  0  0  0  0  0  0  0  0  0  0
  -21.8915    2.3064  -13.5449 C   0  0  0  0  0  0  0  0  0  0  0  0
  -21.9323    0.8523  -13.8023 N   0  0  0  0  0  0  0  0  0  0  0  0
  -20.8865    0.4225  -14.7452 C   0  0  0  0  0  0  0  0  0  0  0  0
  -20.4833    1.3919  -15.8797 C   0  0  0  0  0  0  0  0  0  0  0  0
  -23.2883    0.3810  -14.1027 C   0  0  0  0  0  0  0  0  0  0  0  0
  -23.6157   -0.9680  -13.4519 C   0  0  0  0  0  0  0  0  0  0  0  0
  -24.3621   -0.7837  -12.1543 C   0  0  0  0  0  0  0  0  0  0  0  0
  -24.5527    0.2985  -11.6006 O   0  0  0  0  0  0  0  0  0  0  0  0
  -24.8611   -1.9597  -11.6411 N   0  0  0  0  0  0  0  0  0  0  0  0
  -25.5034   -1.8416  -10.3858 O   0  0  0  0  0  0  0  0  0  0  0  0
  -24.4619   -2.8663  -11.8621 H   0  0  0  0  0  0  0  0  0  0  0  0
  -25.4698   -0.8719  -10.2255 H   0  0  0  0  0  0  0  0  0  0  0  0
 19 20  1  0  0  0
 20 17  1  0  0  0
 20 21  1  0  0  0
 17  7  1  0  0  0
 17 18  1  0  0  0
  7  8  1  0  0  0
  7 15  2  0  0  0
  8  9  2  0  0  0
  9 10  1  0  0  0
 10 11  2  0  0  0
 11 12  1  0  0  0
 11 15  1  0  0  0
 12 13  1  0  0  0
 12 16  1  0  0  0
 13  1  1  0  0  0
 13 14  2  0  0  0
  1  2  1  0  0  0
  1  6  2  0  0  0
  2  3  2  0  0  0
  3  4  1  0  0  0
  4 27  1  0  0  0
  4  5  2  0  0  0
 27 28  1  0  0  0
 28 29  1  0  0  0
 28 33  1  0  0  0
 29 30  1  0  0  0
 30 31  1  0  0  0
 31 34  1  0  0  0
 31 32  1  0  0  0
 34 35  1  0  0  0
 35 36  1  0  0  0
 36 37  2  0  0  0
 36 38  1  0  0  0
 38 39  1  0  0  0
 38 40  1  0  0  0
 39 41  1  0  0  0
 32 33  1  0  0  0
  5  6  1  0  0  0
 14 15  1  0  0  0
 21 22  1  0  0  0
 21 26  2  0  0  0
 22 23  2  0  0  0
 23 24  1  0  0  0
 24 25  2  0  0  0
 25 26  1  0  0  0
M  END
> <minimizedAffinity>
-8.34375

$$$$
