CHEMBL185853


 20 22  0  0  0  0  0  0  0  0999 V2000
  -17.6368    2.7427  -15.2713 N   0  0  0  0  0  0  0  0  0  0  0  0
  -17.4672    3.7324  -15.1723 H   0  0  0  0  0  0  0  0  0  0  0  0
  -22.9854    1.0750  -13.9720 C   0  0  0  0  0  0  0  0  0  0  0  0
  -21.6061    1.5207  -14.3580 C   0  0  0  0  0  0  0  0  0  0  0  0
  -20.6639    0.5859  -14.7842 C   0  0  0  0  0  0  0  0  0  0  0  0
  -19.3711    0.9900  -15.1271 C   0  0  0  0  0  0  0  0  0  0  0  0
  -18.9661    2.3289  -15.0396 C   0  0  0  0  0  0  0  0  0  0  0  0
  -19.9263    3.2688  -14.6357 C   0  0  0  0  0  0  0  0  0  0  0  0
  -21.2267    2.8635  -14.3039 C   0  0  0  0  0  0  0  0  0  0  0  0
  -22.1581    3.7812  -13.9048 O   0  0  0  0  0  0  0  0  0  0  0  0
  -21.7612    4.6666  -13.9242 H   0  0  0  0  0  0  0  0  0  0  0  0
  -16.5289    1.9352  -15.4784 C   0  0  0  0  0  0  0  0  0  0  0  0
  -15.8714    1.9435  -16.5999 N   0  0  0  0  0  0  0  0  0  0  0  0
  -14.7908    1.1289  -16.7885 C   0  0  0  0  0  0  0  0  0  0  0  0
  -14.3059    0.2780  -15.9419 N   0  0  0  0  0  0  0  0  0  0  0  0
  -14.9715    0.2471  -14.7813 N   0  0  0  0  0  0  0  0  0  0  0  0
  -14.6709   -0.5592  -13.7191 C   0  0  0  0  0  0  0  0  0  0  0  0
  -15.5628   -0.2867  -12.7062 C   0  0  0  0  0  0  0  0  0  0  0  0
  -16.4393    0.7248  -13.1802 C   0  0  0  0  0  0  0  0  0  0  0  0
  -16.0541    1.0236  -14.4734 C   0  0  0  0  0  0  0  0  0  0  0  0
  3  4  1  0  0  0
  4  5  1  0  0  0
  4  9  2  0  0  0
  5  6  2  0  0  0
  6  7  1  0  0  0
  7  1  1  0  0  0
  7  8  2  0  0  0
  1 12  1  0  0  0
  1  2  1  0  0  0
 12 13  2  0  0  0
 12 20  1  0  0  0
 13 14  1  0  0  0
 14 15  2  0  0  0
 15 16  1  0  0  0
 16 17  1  0  0  0
 16 20  1  0  0  0
 17 18  2  0  0  0
 18 19  1  0  0  0
 19 20  2  0  0  0
  8  9  1  0  0  0
  9 10  1  0  0  0
 10 11  1  0  0  0
M  END
> <minimizedAffinity>
-7.71060

$$$$
