CHEMBL4441017


 28 31  0  0  0  0  0  0  0  0999 V2000
  -18.7332    2.0700  -15.3724 C   0  0  0  0  0  0  0  0  0  0  0  0
  -19.3867    3.2619  -15.0131 C   0  0  0  0  0  0  0  0  0  0  0  0
  -20.6870    3.2768  -14.4928 C   0  0  0  0  0  0  0  0  0  0  0  0
  -21.2829    2.0368  -14.3494 C   0  0  0  0  0  0  0  0  0  0  0  0
  -22.5164    1.7730  -13.8405 O   0  0  0  0  0  0  0  0  0  0  0  0
  -22.6167    0.4063  -13.9032 C   0  0  0  0  0  0  0  0  0  0  0  0
  -21.5599   -0.1979  -14.4222 N   0  0  0  0  0  0  0  0  0  0  0  0
  -20.6991    0.8344  -14.7061 C   0  0  0  0  0  0  0  0  0  0  0  0
  -19.4054    0.8394  -15.2520 C   0  0  0  0  0  0  0  0  0  0  0  0
  -23.8619   -0.1735  -13.4046 C   0  0  0  0  0  0  0  0  0  0  0  0
  -24.3588    0.1255  -12.1248 C   0  0  0  0  0  0  0  0  0  0  0  0
  -25.5697   -0.4169  -11.6818 C   0  0  0  0  0  0  0  0  0  0  0  0
  -26.2912   -1.2690  -12.5136 C   0  0  0  0  0  0  0  0  0  0  0  0
  -27.7907   -1.9190  -11.9783 Cl  0  0  0  0  0  0  0  0  0  0  0  0
  -25.8074   -1.5922  -13.7791 C   0  0  0  0  0  0  0  0  0  0  0  0
  -24.5976   -1.0467  -14.2207 C   0  0  0  0  0  0  0  0  0  0  0  0
  -16.3119    1.1458  -13.9952 O   0  0  0  0  0  0  0  0  0  0  0  0
  -16.3018    1.6150  -15.1293 C   0  0  0  0  0  0  0  0  0  0  0  0
  -17.3997    2.0482  -15.8516 N   0  0  0  0  0  0  0  0  0  0  0  0
  -17.2762    2.2155  -16.8431 H   0  0  0  0  0  0  0  0  0  0  0  0
  -14.9902    1.6646  -15.8212 C   0  0  0  0  0  0  0  0  0  0  0  0
  -13.9109    2.2322  -15.1314 C   0  0  0  0  0  0  0  0  0  0  0  0
  -12.6731    2.3777  -15.7570 C   0  0  0  0  0  0  0  0  0  0  0  0
  -12.5083    1.9681  -17.0820 C   0  0  0  0  0  0  0  0  0  0  0  0
  -10.9550    2.2051  -17.7987 Cl  0  0  0  0  0  0  0  0  0  0  0  0
  -13.5885    1.4044  -17.7761 C   0  0  0  0  0  0  0  0  0  0  0  0
  -13.4573    0.8517  -19.5895 Br  0  0  0  0  0  0  0  0  0  0  0  0
  -14.8317    1.2488  -17.1469 C   0  0  0  0  0  0  0  0  0  0  0  0
 17 18  2  0  0  0
 18 19  1  0  0  0
 18 21  1  0  0  0
 19  1  1  0  0  0
 19 20  1  0  0  0
  1  2  1  0  0  0
  1  9  2  0  0  0
  2  3  2  0  0  0
  3  4  1  0  0  0
  4  5  1  0  0  0
  4  8  2  0  0  0
  5  6  1  0  0  0
  6 10  1  0  0  0
  6  7  2  0  0  0
 10 11  1  0  0  0
 10 16  2  0  0  0
 11 12  2  0  0  0
 12 13  1  0  0  0
 13 14  1  0  0  0
 13 15  2  0  0  0
 15 16  1  0  0  0
  7  8  1  0  0  0
  8  9  1  0  0  0
 21 22  1  0  0  0
 21 28  2  0  0  0
 22 23  2  0  0  0
 23 24  1  0  0  0
 24 25  1  0  0  0
 24 26  2  0  0  0
 26 27  1  0  0  0
 26 28  1  0  0  0
M  END
> <minimizedAffinity>
-9.85057

$$$$
