CHEMBL364962


 30 32  0  0  0  0  0  0  0  0999 V2000
  -27.3600  -10.2157   -7.4566 C   0  0  0  0  0  0  0  0  0  0  0  0
  -26.8711  -10.6777   -6.2497 C   0  0  0  0  0  0  0  0  0  0  0  0
  -27.4322   -9.9616   -5.2446 N   0  0  0  0  0  0  0  0  0  0  0  0
  -27.1719  -10.1659   -3.9425 N   0  0  0  0  0  0  0  0  0  0  0  0
  -27.8547   -9.4217   -3.1336 C   0  0  0  0  0  0  0  0  0  0  0  0
  -28.8087   -8.5125   -3.4826 N   0  0  0  0  0  0  0  0  0  0  0  0
  -29.0438   -8.3439   -4.7414 C   0  0  0  0  0  0  0  0  0  0  0  0
  -28.3163   -9.0490   -5.7509 C   0  0  0  0  0  0  0  0  0  0  0  0
  -28.2605   -9.1109   -7.1483 C   0  0  0  0  0  0  0  0  0  0  0  0
  -28.9934   -8.3220   -8.2247 C   0  0  0  0  0  0  0  0  0  0  0  0
  -30.4932   -8.6227   -8.2223 C   0  0  0  0  0  0  0  0  0  0  0  0
  -28.7398   -6.8168   -8.2618 C   0  0  0  0  0  0  0  0  0  0  0  0
  -27.0457  -10.8339   -8.7480 C   0  0  0  0  0  0  0  0  0  0  0  0
  -25.9819  -10.6903   -9.3363 O   0  0  0  0  0  0  0  0  0  0  0  0
  -28.1274  -11.4851   -9.2716 O   0  0  0  0  0  0  0  0  0  0  0  0
  -28.9194  -10.3860  -11.2410 C   0  0  0  0  0  0  0  0  0  0  0  0
  -28.1591  -11.5840  -10.7004 C   0  0  0  0  0  0  0  0  0  0  0  0
  -30.0433   -7.5254   -5.2280 O   0  0  0  0  0  0  0  0  0  0  0  0
  -30.1007   -6.1837   -4.7935 C   0  0  0  0  0  0  0  0  0  0  0  0
  -31.1298   -5.7432   -3.9577 C   0  0  0  0  0  0  0  0  0  0  0  0
  -31.2207   -4.3984   -3.6191 C   0  0  0  0  0  0  0  0  0  0  0  0
  -30.2912   -3.4880   -4.1265 C   0  0  0  0  0  0  0  0  0  0  0  0
  -29.2569   -3.9318   -4.9689 C   0  0  0  0  0  0  0  0  0  0  0  0
  -29.1730   -5.2850   -5.3234 C   0  0  0  0  0  0  0  0  0  0  0  0
  -28.2717   -2.9679   -5.5352 C   0  0  0  0  0  0  0  0  0  0  0  0
  -27.5900   -2.2800   -4.7828 O   0  0  0  0  0  0  0  0  0  0  0  0
  -28.2175   -2.9365   -6.9150 N   0  0  0  0  0  0  0  0  0  0  0  0
  -29.0528   -3.1635   -7.4433 H   0  0  0  0  0  0  0  0  0  0  0  0
  -27.4618   -1.8701   -7.4595 O   0  0  0  0  0  0  0  0  0  0  0  0
  -27.6963   -1.8378   -8.8649 C   0  0  0  0  0  0  0  0  0  0  0  0
 16 17  1  0  0  0
 17 15  1  0  0  0
 15 13  1  0  0  0
 13 14  2  0  0  0
 13  1  1  0  0  0
  1  2  2  0  0  0
  1  9  1  0  0  0
  2  3  1  0  0  0
  3  4  1  0  0  0
  3  8  1  0  0  0
  4  5  2  0  0  0
  5  6  1  0  0  0
  6  7  2  0  0  0
  7 18  1  0  0  0
  7  8  1  0  0  0
 18 19  1  0  0  0
 19 20  1  0  0  0
 19 24  2  0  0  0
 20 21  2  0  0  0
 21 22  1  0  0  0
 22 23  2  0  0  0
 23 25  1  0  0  0
 23 24  1  0  0  0
 25 26  2  0  0  0
 25 27  1  0  0  0
 27 29  1  0  0  0
 27 28  1  0  0  0
 29 30  1  0  0  0
  8  9  2  0  0  0
  9 10  1  0  0  0
 10 11  1  0  0  0
 10 12  1  0  0  0
M  END
> <minimizedAffinity>
-7.07962

$$$$
