CHEMBL3358996


 28 30  0  0  0  0  0  0  0  0999 V2000
  -29.3342   -5.8831   -5.4889 C   0  0  0  0  0  0  0  0  0  0  0  0
  -29.1293   -4.6559   -5.8886 N   0  0  0  0  0  0  0  0  0  0  0  0
  -28.8709   -3.6884   -4.9386 C   0  0  0  0  0  0  0  0  0  0  0  0
  -28.7520   -3.9668   -3.6265 C   0  0  0  0  0  0  0  0  0  0  0  0
  -28.9652   -5.2314   -3.1578 N   0  0  0  0  0  0  0  0  0  0  0  0
  -29.3280   -6.2566   -3.9919 C   0  0  0  0  0  0  0  0  0  0  0  0
  -29.6321   -7.3646   -3.5743 O   0  0  0  0  0  0  0  0  0  0  0  0
  -28.9353   -5.4343   -2.1683 H   0  0  0  0  0  0  0  0  0  0  0  0
  -28.7101   -2.2899   -5.4127 C   0  0  0  0  0  0  0  0  0  0  0  0
  -28.0369   -2.0254   -6.6171 C   0  0  0  0  0  0  0  0  0  0  0  0
  -27.9128   -0.7179   -7.1018 C   0  0  0  0  0  0  0  0  0  0  0  0
  -28.4689    0.3333   -6.3815 C   0  0  0  0  0  0  0  0  0  0  0  0
  -28.3793    1.6222   -6.8140 O   0  0  0  0  0  0  0  0  0  0  0  0
  -29.1463    0.0991   -5.1934 C   0  0  0  0  0  0  0  0  0  0  0  0
  -29.2715   -1.2068   -4.7143 C   0  0  0  0  0  0  0  0  0  0  0  0
  -27.8790    1.6360   -7.6463 H   0  0  0  0  0  0  0  0  0  0  0  0
  -28.7832   -8.4520   -8.2468 C   0  0  0  0  0  0  0  0  0  0  0  0
  -28.5475   -7.4461   -7.3028 C   0  0  0  0  0  0  0  0  0  0  0  0
  -29.5822   -6.9422   -6.5102 C   0  0  0  0  0  0  0  0  0  0  0  0
  -30.8886   -7.3943   -6.7161 C   0  0  0  0  0  0  0  0  0  0  0  0
  -31.1515   -8.3711   -7.6819 C   0  0  0  0  0  0  0  0  0  0  0  0
  -30.0913   -8.9458   -8.4149 C   0  0  0  0  0  0  0  0  0  0  0  0
  -26.8229   -9.7878   -8.5269 C   0  0  0  0  0  0  0  0  0  0  0  0
  -27.7998   -8.9144   -9.0840 O   0  0  0  0  0  0  0  0  0  0  0  0
  -32.4195   -8.8473   -7.9222 O   0  0  0  0  0  0  0  0  0  0  0  0
  -32.9262   -9.7417   -6.9351 C   0  0  0  0  0  0  0  0  0  0  0  0
  -30.4487   -9.9236   -9.3158 O   0  0  0  0  0  0  0  0  0  0  0  0
  -30.2122  -11.2657   -8.9007 C   0  0  0  0  0  0  0  0  0  0  0  0
 23 24  1  0  0  0
 24 17  1  0  0  0
 17 18  1  0  0  0
 17 22  2  0  0  0
 18 19  2  0  0  0
 19  1  1  0  0  0
 19 20  1  0  0  0
  1  2  2  0  0  0
  1  6  1  0  0  0
  2  3  1  0  0  0
  3  9  1  0  0  0
  3  4  2  0  0  0
  9 10  1  0  0  0
  9 15  2  0  0  0
 10 11  2  0  0  0
 11 12  1  0  0  0
 12 13  1  0  0  0
 12 14  2  0  0  0
 13 16  1  0  0  0
 14 15  1  0  0  0
  4  5  1  0  0  0
  5  6  1  0  0  0
  5  8  1  0  0  0
  6  7  2  0  0  0
 20 21  2  0  0  0
 21 25  1  0  0  0
 21 22  1  0  0  0
 25 26  1  0  0  0
 22 27  1  0  0  0
 27 28  1  0  0  0
M  END
> <minimizedAffinity>
-8.74284

$$$$
