CHEMBL3926223


 24 26  0  0  0  0  0  0  0  0999 V2000
  -28.8498   -3.1668   -6.5357 C   0  0  0  0  0  0  0  0  0  0  0  0
  -28.5970   -3.8955   -7.6947 C   0  0  0  0  0  0  0  0  0  0  0  0
  -27.9212   -3.2856   -8.7590 C   0  0  0  0  0  0  0  0  0  0  0  0
  -27.4759   -1.9596   -8.6760 C   0  0  0  0  0  0  0  0  0  0  0  0
  -27.7740   -1.2393   -7.5064 C   0  0  0  0  0  0  0  0  0  0  0  0
  -28.4542   -1.8325   -6.4412 C   0  0  0  0  0  0  0  0  0  0  0  0
  -28.2930   -4.5008   -4.2912 N   0  0  0  0  0  0  0  0  0  0  0  0
  -29.6260   -3.9331   -5.1548 S   0  0  0  0  0  0  0  0  0  0  0  0
  -30.3522   -5.1004   -5.5984 O   0  0  0  0  0  0  0  0  0  0  0  0
  -30.2159   -2.9275   -4.3073 O   0  0  0  0  0  0  0  0  0  0  0  0
  -28.5234   -5.3945   -3.8556 H   0  0  0  0  0  0  0  0  0  0  0  0
  -27.9731   -3.7955   -3.6319 H   0  0  0  0  0  0  0  0  0  0  0  0
  -26.8246   -1.2627   -9.7173 N   0  0  0  0  0  0  0  0  0  0  0  0
  -25.9538   -0.8663   -9.3871 H   0  0  0  0  0  0  0  0  0  0  0  0
  -26.7961   -1.5004  -11.1143 C   0  0  0  0  0  0  0  0  0  0  0  0
  -27.9393   -1.8099  -11.7689 N   0  0  0  0  0  0  0  0  0  0  0  0
  -27.9813   -1.9594  -13.1210 N   0  0  0  0  0  0  0  0  0  0  0  0
  -26.8515   -1.8029  -13.8239 C   0  0  0  0  0  0  0  0  0  0  0  0
  -25.6303   -1.5094  -13.2362 C   0  0  0  0  0  0  0  0  0  0  0  0
  -24.4624   -1.4050  -14.0136 C   0  0  0  0  0  0  0  0  0  0  0  0
  -23.2427   -1.0879  -13.4234 C   0  0  0  0  0  0  0  0  0  0  0  0
  -23.1827   -0.8332  -12.0599 C   0  0  0  0  0  0  0  0  0  0  0  0
  -24.3385   -0.9368  -11.2792 C   0  0  0  0  0  0  0  0  0  0  0  0
  -25.5900   -1.3110  -11.8405 C   0  0  0  0  0  0  0  0  0  0  0  0
  7  8  1  0  0  0
  7 11  1  0  0  0
  7 12  1  0  0  0
  8  9  2  0  0  0
  8 10  2  0  0  0
  8  1  1  0  0  0
  1  2  1  0  0  0
  1  6  2  0  0  0
  2  3  2  0  0  0
  3  4  1  0  0  0
  4 13  1  0  0  0
  4  5  2  0  0  0
 13 15  1  0  0  0
 13 14  1  0  0  0
 15 16  1  0  0  0
 15 24  2  0  0  0
 16 17  2  0  0  0
 17 18  1  0  0  0
 18 19  2  0  0  0
 19 20  1  0  0  0
 19 24  1  0  0  0
 20 21  2  0  0  0
 21 22  1  0  0  0
 22 23  2  0  0  0
 23 24  1  0  0  0
  5  6  1  0  0  0
M  END
> <minimizedAffinity>
-8.20426

$$$$
