CHEMBL405430


 47 53  0  0  0  0  0  0  0  0999 V2000
  -13.9816   -0.7978  -14.3587 C   0  0  0  0  0  0  0  0  0  0  0  0
  -14.4625   -0.9623  -13.1186 N   0  0  0  0  0  0  0  0  0  0  0  0
  -14.1376   -2.0904  -12.4944 C   0  0  0  0  0  0  0  0  0  0  0  0
  -13.3915   -3.0518  -13.1117 C   0  0  0  0  0  0  0  0  0  0  0  0
  -13.3009   -4.3312  -12.4253 C   0  0  0  0  0  0  0  0  0  0  0  0
  -12.9122   -4.3381  -11.2446 O   0  0  0  0  0  0  0  0  0  0  0  0
  -13.7350   -5.3874  -13.1700 N   0  0  0  0  0  0  0  0  0  0  0  0
  -14.1127   -5.0997  -14.4926 C   0  0  0  0  0  0  0  0  0  0  0  0
  -14.7055   -5.8171  -15.4077 N   0  0  0  0  0  0  0  0  0  0  0  0
  -13.6218   -6.1428  -16.1512 C   0  0  0  0  0  0  0  0  0  0  0  0
  -13.4256   -7.4252  -16.6879 C   0  0  0  0  0  0  0  0  0  0  0  0
  -12.1243   -7.8933  -16.7043 C   0  0  0  0  0  0  0  0  0  0  0  0
  -11.0601   -7.0223  -16.4294 C   0  0  0  0  0  0  0  0  0  0  0  0
  -11.2463   -5.6391  -16.1157 C   0  0  0  0  0  0  0  0  0  0  0  0
  -12.5838   -5.2051  -15.9156 C   0  0  0  0  0  0  0  0  0  0  0  0
  -13.2827   -4.1976  -15.1722 N   0  0  0  0  0  0  0  0  0  0  0  0
  -13.0699   -2.9450  -14.4675 C   0  0  0  0  0  0  0  0  0  0  0  0
  -13.3326   -1.7548  -15.0941 N   0  0  0  0  0  0  0  0  0  0  0  0
  -13.1793   -6.6893  -12.9721 C   0  0  0  0  0  0  0  0  0  0  0  0
  -14.0632   -7.7797  -12.9787 C   0  0  0  0  0  0  0  0  0  0  0  0
  -15.5651   -7.6150  -13.0667 C   0  0  0  0  0  0  0  0  0  0  0  0
  -13.5517   -9.0744  -12.8639 C   0  0  0  0  0  0  0  0  0  0  0  0
  -12.1838   -9.2995  -12.7365 C   0  0  0  0  0  0  0  0  0  0  0  0
  -11.3010   -8.2277  -12.7180 C   0  0  0  0  0  0  0  0  0  0  0  0
  -11.7658   -6.9079  -12.8468 C   0  0  0  0  0  0  0  0  0  0  0  0
  -10.6990   -5.8381  -12.8552 C   0  0  0  0  0  0  0  0  0  0  0  0
  -14.3541    0.4624  -14.8497 N   0  0  0  0  0  0  0  0  0  0  0  0
  -14.0282    0.3932  -15.8269 H   0  0  0  0  0  0  0  0  0  0  0  0
  -17.0105    2.9276  -15.6118 C   0  0  0  0  0  0  0  0  0  0  0  0
  -15.7699    2.2911  -15.4799 C   0  0  0  0  0  0  0  0  0  0  0  0
  -15.6491    1.0218  -14.8945 C   0  0  0  0  0  0  0  0  0  0  0  0
  -16.8036    0.3457  -14.5238 C   0  0  0  0  0  0  0  0  0  0  0  0
  -18.0578    0.9438  -14.7139 C   0  0  0  0  0  0  0  0  0  0  0  0
  -18.1770    2.2190  -15.2811 C   0  0  0  0  0  0  0  0  0  0  0  0
  -15.8626    4.7975  -16.5015 C   0  0  0  0  0  0  0  0  0  0  0  0
  -17.1006    4.2020  -16.1153 O   0  0  0  0  0  0  0  0  0  0  0  0
  -19.4795    2.6396  -15.4432 O   0  0  0  0  0  0  0  0  0  0  0  0
  -20.1963    2.9242  -14.2358 C   0  0  0  0  0  0  0  0  0  0  0  0
  -21.6243    2.3696  -14.3260 C   0  0  0  0  0  0  0  0  0  0  0  0
  -21.6406    0.8320  -14.4356 C   0  0  0  0  0  0  0  0  0  0  0  0
  -22.4086    0.1892  -13.3665 N   0  0  0  0  0  0  0  0  0  0  0  0
  -23.6704    0.8743  -13.0422 C   0  0  0  0  0  0  0  0  0  0  0  0
  -24.3147    0.2403  -11.7892 C   0  0  0  0  0  0  0  0  0  0  0  0
  -24.5943   -1.2049  -11.9010 N   0  0  0  0  0  0  0  0  0  0  0  0
  -25.7618   -1.4585  -12.7391 C   0  0  0  0  0  0  0  0  0  0  0  0
  -23.3910   -1.9002  -12.4064 C   0  0  0  0  0  0  0  0  0  0  0  0
  -22.6854   -1.2356  -13.6206 C   0  0  0  0  0  0  0  0  0  0  0  0
 35 36  1  0  0  0
 36 29  1  0  0  0
 29 30  1  0  0  0
 29 34  2  0  0  0
 30 31  2  0  0  0
 31 27  1  0  0  0
 31 32  1  0  0  0
 27  1  1  0  0  0
 27 28  1  0  0  0
  1  2  1  0  0  0
  1 18  2  0  0  0
  2  3  2  0  0  0
  3  4  1  0  0  0
  4  5  1  0  0  0
  4 17  2  0  0  0
  5  6  2  0  0  0
  5  7  1  0  0  0
  7 19  1  0  0  0
  7  8  1  0  0  0
 19 20  1  0  0  0
 19 25  2  0  0  0
 20 21  1  0  0  0
 20 22  2  0  0  0
 22 23  1  0  0  0
 23 24  2  0  0  0
 24 25  1  0  0  0
 25 26  1  0  0  0
  8  9  2  0  0  0
  8 16  1  0  0  0
  9 10  1  0  0  0
 10 11  1  0  0  0
 10 15  2  0  0  0
 11 12  2  0  0  0
 12 13  1  0  0  0
 13 14  2  0  0  0
 14 15  1  0  0  0
 15 16  1  0  0  0
 16 17  1  0  0  0
 17 18  1  0  0  0
 32 33  2  0  0  0
 33 34  1  0  0  0
 34 37  1  0  0  0
 37 38  1  0  0  0
 38 39  1  0  0  0
 39 40  1  0  0  0
 40 41  1  0  0  0
 41 42  1  0  0  0
 41 47  1  0  0  0
 42 43  1  0  0  0
 43 44  1  0  0  0
 44 45  1  0  0  0
 44 46  1  0  0  0
 46 47  1  0  0  0
M  END
> <minimizedAffinity>
-8.62933

$$$$
