CHEMBL3671507


 38 40  0  0  0  0  0  0  0  0999 V2000
  -17.9386    1.0868  -14.9235 C   0  0  0  0  0  0  0  0  0  0  0  0
  -19.2272    0.5827  -14.7413 C   0  0  0  0  0  0  0  0  0  0  0  0
  -20.3273    1.4556  -14.5817 C   0  0  0  0  0  0  0  0  0  0  0  0
  -21.6398    1.0411  -14.2862 C   0  0  0  0  0  0  0  0  0  0  0  0
  -22.6440    1.9254  -14.1472 N   0  0  0  0  0  0  0  0  0  0  0  0
  -22.3447    3.2179  -14.2745 C   0  0  0  0  0  0  0  0  0  0  0  0
  -21.1301    3.7191  -14.5134 N   0  0  0  0  0  0  0  0  0  0  0  0
  -20.1282    2.8417  -14.6528 C   0  0  0  0  0  0  0  0  0  0  0  0
  -18.8410    3.3194  -14.8635 C   0  0  0  0  0  0  0  0  0  0  0  0
  -17.7382    2.4694  -15.0219 C   0  0  0  0  0  0  0  0  0  0  0  0
  -16.0973   -0.0283  -13.8393 C   0  0  0  0  0  0  0  0  0  0  0  0
  -16.1981    0.5694  -12.7775 O   0  0  0  0  0  0  0  0  0  0  0  0
  -16.8756    0.1635  -14.9693 N   0  0  0  0  0  0  0  0  0  0  0  0
  -17.0795   -0.7035  -15.4518 H   0  0  0  0  0  0  0  0  0  0  0  0
  -15.2242   -2.2963  -13.4330 C   0  0  0  0  0  0  0  0  0  0  0  0
  -15.1048   -1.1155  -14.0510 C   0  0  0  0  0  0  0  0  0  0  0  0
  -21.9234   -0.3346  -14.0783 N   0  0  0  0  0  0  0  0  0  0  0  0
  -21.7810   -0.8623  -14.9354 H   0  0  0  0  0  0  0  0  0  0  0  0
  -23.0420   -0.7995  -13.3460 C   0  0  0  0  0  0  0  0  0  0  0  0
  -22.9205   -1.1423  -11.9913 C   0  0  0  0  0  0  0  0  0  0  0  0
  -24.0374   -1.5129  -11.2420 C   0  0  0  0  0  0  0  0  0  0  0  0
  -25.2874   -1.5689  -11.8541 C   0  0  0  0  0  0  0  0  0  0  0  0
  -26.8119   -1.9835  -10.8170 Br  0  0  0  0  0  0  0  0  0  0  0  0
  -25.4221   -1.3036  -13.2150 C   0  0  0  0  0  0  0  0  0  0  0  0
  -24.2976   -0.9335  -13.9496 C   0  0  0  0  0  0  0  0  0  0  0  0
  -24.4338   -0.6655  -15.2584 F   0  0  0  0  0  0  0  0  0  0  0  0
  -16.5541    3.1245  -15.2699 O   0  0  0  0  0  0  0  0  0  0  0  0
  -16.4157    3.6896  -16.5776 C   0  0  0  0  0  0  0  0  0  0  0  0
  -14.9981    3.4708  -17.1193 C   0  0  0  0  0  0  0  0  0  0  0  0
  -14.1817    4.6761  -17.0260 N   0  0  0  0  0  0  0  0  0  0  0  0
  -13.4233    4.9087  -15.9070 C   0  0  0  0  0  0  0  0  0  0  0  0
  -13.2945    4.0983  -14.9979 O   0  0  0  0  0  0  0  0  0  0  0  0
  -12.8525    6.1575  -15.8982 N   0  0  0  0  0  0  0  0  0  0  0  0
  -14.3752    5.4466  -17.6467 H   0  0  0  0  0  0  0  0  0  0  0  0
  -12.7117    6.5943  -16.7960 H   0  0  0  0  0  0  0  0  0  0  0  0
  -11.9123    6.4763  -14.8388 C   0  0  0  0  0  0  0  0  0  0  0  0
  -11.5218    7.9495  -14.7848 C   0  0  0  0  0  0  0  0  0  0  0  0
  -12.1503    8.7758  -15.8957 C   0  0  0  0  0  0  0  0  0  0  0  0
 15 16  2  0  0  0
 16 11  1  0  0  0
 11 12  2  0  0  0
 11 13  1  0  0  0
 13  1  1  0  0  0
 13 14  1  0  0  0
  1  2  1  0  0  0
  1 10  2  0  0  0
  2  3  2  0  0  0
  3  4  1  0  0  0
  3  8  1  0  0  0
  4 17  1  0  0  0
  4  5  2  0  0  0
 17 19  1  0  0  0
 17 18  1  0  0  0
 19 20  1  0  0  0
 19 25  2  0  0  0
 20 21  2  0  0  0
 21 22  1  0  0  0
 22 23  1  0  0  0
 22 24  2  0  0  0
 24 25  1  0  0  0
 25 26  1  0  0  0
  5  6  1  0  0  0
  6  7  2  0  0  0
  7  8  1  0  0  0
  8  9  2  0  0  0
  9 10  1  0  0  0
 10 27  1  0  0  0
 27 28  1  0  0  0
 28 29  1  0  0  0
 29 30  1  0  0  0
 30 31  1  0  0  0
 30 34  1  0  0  0
 31 32  2  0  0  0
 31 33  1  0  0  0
 33 36  1  0  0  0
 33 35  1  0  0  0
 36 37  1  0  0  0
 37 38  1  0  0  0
M  END
> <minimizedAffinity>
-9.19185

$$$$
