CHEMBL3753656


 34 38  0  0  0  0  0  0  0  0999 V2000
  -25.8703   -1.8031  -12.3654 N   0  0  0  0  0  0  0  0  0  0  0  0
  -27.3372   -2.0446  -12.4149 C   0  0  0  0  0  0  0  0  0  0  0  0
  -28.2515   -1.5357  -11.2601 C   0  0  0  0  0  0  0  0  0  0  0  0
  -27.5383   -1.5615   -9.9906 N   0  0  0  0  0  0  0  0  0  0  0  0
  -26.3075   -0.7745  -10.0312 C   0  0  0  0  0  0  0  0  0  0  0  0
  -25.3474   -1.4747  -11.0172 C   0  0  0  0  0  0  0  0  0  0  0  0
  -27.8621   -2.2413   -8.8337 C   0  0  0  0  0  0  0  0  0  0  0  0
  -28.0961   -3.5659   -8.9675 N   0  0  0  0  0  0  0  0  0  0  0  0
  -28.4307   -4.3719   -7.8979 N   0  0  0  0  0  0  0  0  0  0  0  0
  -28.4925   -3.8735   -6.6468 C   0  0  0  0  0  0  0  0  0  0  0  0
  -28.2029   -2.5087   -6.4160 C   0  0  0  0  0  0  0  0  0  0  0  0
  -28.1440   -1.9212   -5.1223 C   0  0  0  0  0  0  0  0  0  0  0  0
  -28.0334   -0.5484   -4.9195 C   0  0  0  0  0  0  0  0  0  0  0  0
  -27.9512    0.2849   -6.0122 C   0  0  0  0  0  0  0  0  0  0  0  0
  -27.9148   -0.2700   -7.2886 C   0  0  0  0  0  0  0  0  0  0  0  0
  -27.9684   -1.6641   -7.5411 C   0  0  0  0  0  0  0  0  0  0  0  0
  -28.9443   -4.8624   -5.6243 C   0  0  0  0  0  0  0  0  0  0  0  0
  -30.2680   -4.8530   -5.1417 C   0  0  0  0  0  0  0  0  0  0  0  0
  -30.7192   -5.7959   -4.2077 C   0  0  0  0  0  0  0  0  0  0  0  0
  -29.8603   -6.7856   -3.7411 C   0  0  0  0  0  0  0  0  0  0  0  0
  -28.5368   -6.7951   -4.1611 C   0  0  0  0  0  0  0  0  0  0  0  0
  -28.0806   -5.8206   -5.0557 C   0  0  0  0  0  0  0  0  0  0  0  0
  -25.4035   -0.8571  -13.3959 C   0  0  0  0  0  0  0  0  0  0  0  0
  -23.4021    0.3600  -14.1320 N   0  0  0  0  0  0  0  0  0  0  0  0
  -23.8662   -0.7290  -13.4088 C   0  0  0  0  0  0  0  0  0  0  0  0
  -23.1794   -1.5785  -12.8454 O   0  0  0  0  0  0  0  0  0  0  0  0
  -24.1362    0.9449  -14.5198 H   0  0  0  0  0  0  0  0  0  0  0  0
  -17.9642    1.9782  -15.0171 C   0  0  0  0  0  0  0  0  0  0  0  0
  -19.3784    1.5497  -14.7554 C   0  0  0  0  0  0  0  0  0  0  0  0
  -20.2539    2.3854  -14.0634 C   0  0  0  0  0  0  0  0  0  0  0  0
  -21.5805    2.0034  -13.8352 C   0  0  0  0  0  0  0  0  0  0  0  0
  -22.0632    0.7802  -14.2970 C   0  0  0  0  0  0  0  0  0  0  0  0
  -21.1790   -0.0695  -14.9754 C   0  0  0  0  0  0  0  0  0  0  0  0
  -19.8479    0.3116  -15.2037 C   0  0  0  0  0  0  0  0  0  0  0  0
 28 29  1  0  0  0
 29 30  1  0  0  0
 29 34  2  0  0  0
 30 31  2  0  0  0
 31 32  1  0  0  0
 32 24  1  0  0  0
 32 33  2  0  0  0
 24 25  1  0  0  0
 24 27  1  0  0  0
 25 26  2  0  0  0
 25 23  1  0  0  0
 23  1  1  0  0  0
  1  2  1  0  0  0
  1  6  1  0  0  0
  2  3  1  0  0  0
  3  4  1  0  0  0
  4  7  1  0  0  0
  4  5  1  0  0  0
  7  8  1  0  0  0
  7 16  2  0  0  0
  8  9  2  0  0  0
  9 10  1  0  0  0
 10 17  1  0  0  0
 10 11  2  0  0  0
 17 18  1  0  0  0
 17 22  2  0  0  0
 18 19  2  0  0  0
 19 20  1  0  0  0
 20 21  2  0  0  0
 21 22  1  0  0  0
 11 12  1  0  0  0
 11 16  1  0  0  0
 12 13  2  0  0  0
 13 14  1  0  0  0
 14 15  2  0  0  0
 15 16  1  0  0  0
  5  6  1  0  0  0
 33 34  1  0  0  0
M  END
> <minimizedAffinity>
-9.53637

$$$$
