CHEMBL4173458


 33 37  0  0  0  0  0  0  0  0999 V2000
  -23.2568   -0.8594  -13.3016 C   0  0  0  0  0  0  0  0  0  0  0  0
  -24.0372   -1.2297  -14.4053 C   0  0  0  0  0  0  0  0  0  0  0  0
  -25.3893   -1.5723  -14.2577 C   0  0  0  0  0  0  0  0  0  0  0  0
  -25.9111   -1.5237  -12.9608 C   0  0  0  0  0  0  0  0  0  0  0  0
  -25.1412   -1.2197  -11.8531 C   0  0  0  0  0  0  0  0  0  0  0  0
  -23.7946   -0.9080  -12.0093 C   0  0  0  0  0  0  0  0  0  0  0  0
  -25.8762   -1.2721  -10.7123 N   0  0  0  0  0  0  0  0  0  0  0  0
  -27.1044   -1.5816  -11.0636 C   0  0  0  0  0  0  0  0  0  0  0  0
  -27.1758   -1.7103  -12.4405 N   0  0  0  0  0  0  0  0  0  0  0  0
  -28.3116   -1.9717  -13.2886 C   0  0  0  0  0  0  0  0  0  0  0  0
  -28.1670   -1.7515  -10.2391 N   0  0  0  0  0  0  0  0  0  0  0  0
  -29.1059   -1.5912  -10.5674 H   0  0  0  0  0  0  0  0  0  0  0  0
  -28.1115   -2.2074   -8.8962 C   0  0  0  0  0  0  0  0  0  0  0  0
  -28.4012   -3.5181   -8.5193 C   0  0  0  0  0  0  0  0  0  0  0  0
  -28.5337   -3.8819   -7.1763 C   0  0  0  0  0  0  0  0  0  0  0  0
  -28.3460   -2.9592   -6.1351 C   0  0  0  0  0  0  0  0  0  0  0  0
  -27.9687   -1.6612   -6.5084 C   0  0  0  0  0  0  0  0  0  0  0  0
  -27.8468   -1.2966   -7.8629 C   0  0  0  0  0  0  0  0  0  0  0  0
  -28.5360   -3.3503   -4.6592 C   0  0  0  0  0  0  0  0  0  0  0  0
  -28.2865   -2.1398   -3.7332 C   0  0  0  0  0  0  0  0  0  0  0  0
  -29.9704   -3.8671   -4.4215 C   0  0  0  0  0  0  0  0  0  0  0  0
  -27.5618   -4.4694   -4.2253 C   0  0  0  0  0  0  0  0  0  0  0  0
  -21.9473   -0.4973  -13.5272 O   0  0  0  0  0  0  0  0  0  0  0  0
  -18.4127    3.8221  -15.7502 C   0  0  0  0  0  0  0  0  0  0  0  0
  -19.0514    2.6249  -15.3024 N   0  0  0  0  0  0  0  0  0  0  0  0
  -18.3913    1.4314  -15.3395 N   0  0  0  0  0  0  0  0  0  0  0  0
  -19.2753    0.5668  -14.8185 C   0  0  0  0  0  0  0  0  0  0  0  0
  -20.4922    1.1773  -14.4765 C   0  0  0  0  0  0  0  0  0  0  0  0
  -21.7087    0.8206  -13.9089 C   0  0  0  0  0  0  0  0  0  0  0  0
  -22.6636    1.7731  -13.7536 N   0  0  0  0  0  0  0  0  0  0  0  0
  -22.3630    3.0406  -14.0955 C   0  0  0  0  0  0  0  0  0  0  0  0
  -21.2166    3.5049  -14.6202 N   0  0  0  0  0  0  0  0  0  0  0  0
  -20.3219    2.5174  -14.7910 C   0  0  0  0  0  0  0  0  0  0  0  0
 24 25  1  0  0  0
 25 26  1  0  0  0
 25 33  1  0  0  0
 26 27  2  0  0  0
 27 28  1  0  0  0
 28 29  1  0  0  0
 28 33  2  0  0  0
 29 23  1  0  0  0
 29 30  2  0  0  0
 23  1  1  0  0  0
  1  2  1  0  0  0
  1  6  2  0  0  0
  2  3  2  0  0  0
  3  4  1  0  0  0
  4  5  2  0  0  0
  4  9  1  0  0  0
  5  6  1  0  0  0
  5  7  1  0  0  0
  7  8  2  0  0  0
  8 11  1  0  0  0
  8  9  1  0  0  0
 11 13  1  0  0  0
 11 12  1  0  0  0
 13 14  1  0  0  0
 13 18  2  0  0  0
 14 15  2  0  0  0
 15 16  1  0  0  0
 16 19  1  0  0  0
 16 17  2  0  0  0
 19 20  1  0  0  0
 19 21  1  0  0  0
 19 22  1  0  0  0
 17 18  1  0  0  0
  9 10  1  0  0  0
 30 31  1  0  0  0
 31 32  2  0  0  0
 32 33  1  0  0  0
M  END
> <minimizedAffinity>
-10.65420

$$$$
