CHEMBL4789042


 41 46  0  0  0  0  0  0  0  0999 V2000
  -28.3127   -2.7371   -8.9267 C   0  0  0  0  0  0  0  0  0  0  0  0
  -28.0240   -1.8085   -8.0163 N   0  0  0  0  0  0  0  0  0  0  0  0
  -27.9141   -2.2442   -6.7521 C   0  0  0  0  0  0  0  0  0  0  0  0
  -28.0225   -3.5626   -6.4095 C   0  0  0  0  0  0  0  0  0  0  0  0
  -28.2643   -4.4660   -7.4158 C   0  0  0  0  0  0  0  0  0  0  0  0
  -28.4872   -4.0441   -8.6710 N   0  0  0  0  0  0  0  0  0  0  0  0
  -27.8736   -1.2120  -12.0946 O   0  0  0  0  0  0  0  0  0  0  0  0
  -27.4943   -1.6623  -11.0138 C   0  0  0  0  0  0  0  0  0  0  0  0
  -26.1952   -1.7112  -10.5826 N   0  0  0  0  0  0  0  0  0  0  0  0
  -28.4222   -2.2639  -10.2253 N   0  0  0  0  0  0  0  0  0  0  0  0
  -26.0756   -2.1681   -9.6753 H   0  0  0  0  0  0  0  0  0  0  0  0
  -29.3247   -2.4139  -10.6487 H   0  0  0  0  0  0  0  0  0  0  0  0
  -25.0405   -1.3406  -11.2777 C   0  0  0  0  0  0  0  0  0  0  0  0
  -24.6399   -0.0204  -11.4768 C   0  0  0  0  0  0  0  0  0  0  0  0
  -23.4773    0.2670  -12.1985 C   0  0  0  0  0  0  0  0  0  0  0  0
  -22.7190   -0.7656  -12.7456 C   0  0  0  0  0  0  0  0  0  0  0  0
  -23.1132   -2.0879  -12.5577 C   0  0  0  0  0  0  0  0  0  0  0  0
  -24.2586   -2.3755  -11.8147 C   0  0  0  0  0  0  0  0  0  0  0  0
  -28.3423   -5.8119   -7.0938 N   0  0  0  0  0  0  0  0  0  0  0  0
  -28.6025   -6.1975   -5.6986 C   0  0  0  0  0  0  0  0  0  0  0  0
  -28.0024   -7.6056   -5.4890 C   0  0  0  0  0  0  0  0  0  0  0  0
  -28.5358   -8.5583   -6.4816 N   0  0  0  0  0  0  0  0  0  0  0  0
  -28.4982   -8.1459   -7.8881 C   0  0  0  0  0  0  0  0  0  0  0  0
  -29.0406   -6.7036   -8.0478 C   0  0  0  0  0  0  0  0  0  0  0  0
  -28.9352   -9.8041   -6.0597 C   0  0  0  0  0  0  0  0  0  0  0  0
  -29.4492  -10.7564   -6.9378 C   0  0  0  0  0  0  0  0  0  0  0  0
  -29.8861  -11.9928   -6.4565 C   0  0  0  0  0  0  0  0  0  0  0  0
  -29.8043  -12.2630   -5.1016 C   0  0  0  0  0  0  0  0  0  0  0  0
  -29.2680  -11.2815   -4.2949 C   0  0  0  0  0  0  0  0  0  0  0  0
  -28.8316  -10.0858   -4.7443 N   0  0  0  0  0  0  0  0  0  0  0  0
  -27.5542   -1.0374   -5.4803 S   0  0  0  0  0  0  0  0  0  0  0  0
  -28.4723   -1.7787   -4.1917 C   0  0  0  0  0  0  0  0  0  0  0  0
  -27.9870   -2.0067   -2.9257 C   0  0  0  0  0  0  0  0  0  0  0  0
  -28.9897   -2.6309   -2.2383 N   0  0  0  0  0  0  0  0  0  0  0  0
  -29.8523   -3.2040   -3.1453 C   0  0  0  0  0  0  0  0  0  0  0  0
  -30.7308   -4.2837   -3.0256 C   0  0  0  0  0  0  0  0  0  0  0  0
  -31.5505   -4.5598   -4.1232 C   0  0  0  0  0  0  0  0  0  0  0  0
  -31.5722   -3.7161   -5.2337 C   0  0  0  0  0  0  0  0  0  0  0  0
  -30.6667   -2.6534   -5.3434 C   0  0  0  0  0  0  0  0  0  0  0  0
  -29.7137   -2.4668   -4.3222 C   0  0  0  0  0  0  0  0  0  0  0  0
  -29.0410   -2.7341   -1.2341 H   0  0  0  0  0  0  0  0  0  0  0  0
  7  8  2  0  0  0
  8  9  1  0  0  0
  8 10  1  0  0  0
  9 13  1  0  0  0
  9 11  1  0  0  0
 13 14  1  0  0  0
 13 18  2  0  0  0
 14 15  2  0  0  0
 15 16  1  0  0  0
 16 17  2  0  0  0
 17 18  1  0  0  0
 10  1  1  0  0  0
 10 12  1  0  0  0
  1  2  1  0  0  0
  1  6  2  0  0  0
  2  3  2  0  0  0
  3 31  1  0  0  0
  3  4  1  0  0  0
 31 32  1  0  0  0
 32 33  2  0  0  0
 32 40  1  0  0  0
 33 34  1  0  0  0
 34 35  1  0  0  0
 34 41  1  0  0  0
 35 36  1  0  0  0
 35 40  2  0  0  0
 36 37  2  0  0  0
 37 38  1  0  0  0
 38 39  2  0  0  0
 39 40  1  0  0  0
  4  5  2  0  0  0
  5 19  1  0  0  0
  5  6  1  0  0  0
 19 20  1  0  0  0
 19 24  1  0  0  0
 20 21  1  0  0  0
 21 22  1  0  0  0
 22 25  1  0  0  0
 22 23  1  0  0  0
 25 26  1  0  0  0
 25 30  2  0  0  0
 26 27  2  0  0  0
 27 28  1  0  0  0
 28 29  2  0  0  0
 29 30  1  0  0  0
 23 24  1  0  0  0
M  END
> <minimizedAffinity>
-7.55935

$$$$
