CHEMBL378165


 33 37  0  0  0  0  0  0  0  0999 V2000
  -28.4725   -1.6238   -4.3057 C   0  0  0  0  0  0  0  0  0  0  0  0
  -29.0867   -2.8211   -4.8288 N   0  0  0  0  0  0  0  0  0  0  0  0
  -29.8958   -3.6639   -4.1179 C   0  0  0  0  0  0  0  0  0  0  0  0
  -30.3629   -4.6377   -4.8630 N   0  0  0  0  0  0  0  0  0  0  0  0
  -29.7852   -4.4477   -6.0852 C   0  0  0  0  0  0  0  0  0  0  0  0
  -29.0074   -3.3128   -6.1104 C   0  0  0  0  0  0  0  0  0  0  0  0
  -28.3300   -2.6873   -7.1964 C   0  0  0  0  0  0  0  0  0  0  0  0
  -27.5701   -1.6172   -7.0764 N   0  0  0  0  0  0  0  0  0  0  0  0
  -27.1838   -1.2585   -8.3418 N   0  0  0  0  0  0  0  0  0  0  0  0
  -27.7385   -2.1193   -9.1704 C   0  0  0  0  0  0  0  0  0  0  0  0
  -28.4457   -3.0838   -8.5094 O   0  0  0  0  0  0  0  0  0  0  0  0
  -27.7554   -2.1932  -10.5145 N   0  0  0  0  0  0  0  0  0  0  0  0
  -28.6678   -2.2175  -10.9513 H   0  0  0  0  0  0  0  0  0  0  0  0
  -26.7159   -1.7883  -11.3757 C   0  0  0  0  0  0  0  0  0  0  0  0
  -25.4559   -1.3687  -10.9217 C   0  0  0  0  0  0  0  0  0  0  0  0
  -24.4470   -0.9851  -11.8110 C   0  0  0  0  0  0  0  0  0  0  0  0
  -24.6756   -1.0405  -13.1780 C   0  0  0  0  0  0  0  0  0  0  0  0
  -23.4472   -0.5538  -14.2734 Cl  0  0  0  0  0  0  0  0  0  0  0  0
  -25.9035   -1.4910  -13.6599 C   0  0  0  0  0  0  0  0  0  0  0  0
  -26.9120   -1.8706  -12.7639 C   0  0  0  0  0  0  0  0  0  0  0  0
  -29.9965   -5.2679   -7.1212 N   0  0  0  0  0  0  0  0  0  0  0  0
  -30.5466   -4.9492   -7.9136 H   0  0  0  0  0  0  0  0  0  0  0  0
  -29.1846   -6.4364   -7.3713 C   0  0  0  0  0  0  0  0  0  0  0  0
  -30.0955   -7.6182   -7.6773 C   0  0  0  0  0  0  0  0  0  0  0  0
  -31.4050   -7.5894   -7.1698 C   0  0  0  0  0  0  0  0  0  0  0  0
  -32.2693   -8.6544   -7.3774 C   0  0  0  0  0  0  0  0  0  0  0  0
  -31.8284   -9.7747   -8.0855 C   0  0  0  0  0  0  0  0  0  0  0  0
  -30.5490   -9.8523   -8.6064 C   0  0  0  0  0  0  0  0  0  0  0  0
  -30.2102  -10.9819   -9.2568 N   0  0  0  0  0  0  0  0  0  0  0  0
  -28.9755  -11.0658   -9.7896 C   0  0  0  0  0  0  0  0  0  0  0  0
  -28.0427  -10.0579   -9.7095 C   0  0  0  0  0  0  0  0  0  0  0  0
  -28.3942   -8.8942   -9.0279 C   0  0  0  0  0  0  0  0  0  0  0  0
  -29.6665   -8.7591   -8.4321 C   0  0  0  0  0  0  0  0  0  0  0  0
  1  2  1  0  0  0
  2  3  1  0  0  0
  2  6  1  0  0  0
  3  4  2  0  0  0
  4  5  1  0  0  0
  5 21  1  0  0  0
  5  6  2  0  0  0
 21 23  1  0  0  0
 21 22  1  0  0  0
 23 24  1  0  0  0
 24 25  1  0  0  0
 24 33  2  0  0  0
 25 26  2  0  0  0
 26 27  1  0  0  0
 27 28  2  0  0  0
 28 29  1  0  0  0
 28 33  1  0  0  0
 29 30  2  0  0  0
 30 31  1  0  0  0
 31 32  2  0  0  0
 32 33  1  0  0  0
  6  7  1  0  0  0
  7  8  2  0  0  0
  7 11  1  0  0  0
  8  9  1  0  0  0
  9 10  2  0  0  0
 10 12  1  0  0  0
 10 11  1  0  0  0
 12 14  1  0  0  0
 12 13  1  0  0  0
 14 15  1  0  0  0
 14 20  2  0  0  0
 15 16  2  0  0  0
 16 17  1  0  0  0
 17 18  1  0  0  0
 17 19  2  0  0  0
 19 20  1  0  0  0
M  END
> <minimizedAffinity>
-10.45797

$$$$
