CHEMBL595615


 40 45  0  0  0  0  0  0  0  0999 V2000
  -27.2211   -1.5168   -8.9543 C   0  0  0  0  0  0  0  0  0  0  0  0
  -26.4548   -0.8666   -9.9203 C   0  0  0  0  0  0  0  0  0  0  0  0
  -26.5875   -1.1675  -11.2908 C   0  0  0  0  0  0  0  0  0  0  0  0
  -25.7509   -0.6452  -12.2932 C   0  0  0  0  0  0  0  0  0  0  0  0
  -25.9210   -0.9738  -13.5858 N   0  0  0  0  0  0  0  0  0  0  0  0
  -26.9167   -1.8197  -13.8702 C   0  0  0  0  0  0  0  0  0  0  0  0
  -27.7454   -2.3954  -12.9908 N   0  0  0  0  0  0  0  0  0  0  0  0
  -27.5707   -2.0774  -11.7058 C   0  0  0  0  0  0  0  0  0  0  0  0
  -28.3884   -2.6586  -10.7414 C   0  0  0  0  0  0  0  0  0  0  0  0
  -28.2517   -2.3724   -9.3747 C   0  0  0  0  0  0  0  0  0  0  0  0
  -27.7666   -0.4379   -6.8779 C   0  0  0  0  0  0  0  0  0  0  0  0
  -26.9878   -1.3734   -7.6149 O   0  0  0  0  0  0  0  0  0  0  0  0
  -24.6713    0.2166  -11.9263 N   0  0  0  0  0  0  0  0  0  0  0  0
  -25.0268    1.0069  -11.4010 H   0  0  0  0  0  0  0  0  0  0  0  0
  -23.5569    0.5535  -12.7267 C   0  0  0  0  0  0  0  0  0  0  0  0
  -22.6242   -0.4151  -13.1224 C   0  0  0  0  0  0  0  0  0  0  0  0
  -21.4675   -0.0606  -13.8502 C   0  0  0  0  0  0  0  0  0  0  0  0
  -21.2300    1.2701  -14.2309 C   0  0  0  0  0  0  0  0  0  0  0  0
  -22.2409    2.2013  -13.9358 C   0  0  0  0  0  0  0  0  0  0  0  0
  -23.3783    1.8497  -13.2041 C   0  0  0  0  0  0  0  0  0  0  0  0
  -19.9428    1.6831  -14.8547 C   0  0  0  0  0  0  0  0  0  0  0  0
  -18.9218    0.8879  -15.1254 N   0  0  0  0  0  0  0  0  0  0  0  0
  -17.8273    1.6422  -15.5633 C   0  0  0  0  0  0  0  0  0  0  0  0
  -16.5435    1.1711  -15.9102 C   0  0  0  0  0  0  0  0  0  0  0  0
  -15.5283    2.0688  -16.2791 C   0  0  0  0  0  0  0  0  0  0  0  0
  -15.7766    3.4364  -16.3169 C   0  0  0  0  0  0  0  0  0  0  0  0
  -17.0409    3.9323  -16.0064 C   0  0  0  0  0  0  0  0  0  0  0  0
  -18.0405    3.0197  -15.6353 C   0  0  0  0  0  0  0  0  0  0  0  0
  -19.6598    3.3517  -15.2078 S   0  0  0  0  0  0  0  0  0  0  0  0
  -29.1849   -2.9964   -8.5705 O   0  0  0  0  0  0  0  0  0  0  0  0
  -28.7331   -4.2225   -7.9837 C   0  0  0  0  0  0  0  0  0  0  0  0
  -29.9023   -5.1202   -7.5814 C   0  0  0  0  0  0  0  0  0  0  0  0
  -29.4831   -6.0715   -6.4448 C   0  0  0  0  0  0  0  0  0  0  0  0
  -29.5106   -5.4528   -5.1089 N   0  0  0  0  0  0  0  0  0  0  0  0
  -28.2922   -4.6787   -4.8083 C   0  0  0  0  0  0  0  0  0  0  0  0
  -28.3518   -4.0049   -3.4170 C   0  0  0  0  0  0  0  0  0  0  0  0
  -29.5305   -3.1468   -3.1920 N   0  0  0  0  0  0  0  0  0  0  0  0
  -29.4358   -1.8985   -3.9447 C   0  0  0  0  0  0  0  0  0  0  0  0
  -30.7463   -3.9068   -3.5440 C   0  0  0  0  0  0  0  0  0  0  0  0
  -30.7092   -4.6134   -4.9235 C   0  0  0  0  0  0  0  0  0  0  0  0
 11 12  1  0  0  0
 12  1  1  0  0  0
  1  2  1  0  0  0
  1 10  2  0  0  0
  2  3  2  0  0  0
  3  4  1  0  0  0
  3  8  1  0  0  0
  4 13  1  0  0  0
  4  5  2  0  0  0
 13 15  1  0  0  0
 13 14  1  0  0  0
 15 16  1  0  0  0
 15 20  2  0  0  0
 16 17  2  0  0  0
 17 18  1  0  0  0
 18 21  1  0  0  0
 18 19  2  0  0  0
 21 22  2  0  0  0
 21 29  1  0  0  0
 22 23  1  0  0  0
 23 24  1  0  0  0
 23 28  2  0  0  0
 24 25  2  0  0  0
 25 26  1  0  0  0
 26 27  2  0  0  0
 27 28  1  0  0  0
 28 29  1  0  0  0
 19 20  1  0  0  0
  5  6  1  0  0  0
  6  7  2  0  0  0
  7  8  1  0  0  0
  8  9  2  0  0  0
  9 10  1  0  0  0
 10 30  1  0  0  0
 30 31  1  0  0  0
 31 32  1  0  0  0
 32 33  1  0  0  0
 33 34  1  0  0  0
 34 35  1  0  0  0
 34 40  1  0  0  0
 35 36  1  0  0  0
 36 37  1  0  0  0
 37 38  1  0  0  0
 37 39  1  0  0  0
 39 40  1  0  0  0
M  END
> <minimizedAffinity>
-8.22293

$$$$
