CHEMBL4447552


 25 28  0  0  0  0  0  0  0  0999 V2000
  -25.7537   -2.3789  -12.6184 C   0  0  0  0  0  0  0  0  0  0  0  0
  -24.6836   -1.3946  -13.0216 C   0  0  0  0  0  0  0  0  0  0  0  0
  -24.6012   -0.9280  -14.3380 C   0  0  0  0  0  0  0  0  0  0  0  0
  -23.5789   -0.0503  -14.7193 C   0  0  0  0  0  0  0  0  0  0  0  0
  -22.6141    0.4025  -13.8017 C   0  0  0  0  0  0  0  0  0  0  0  0
  -22.7157   -0.0762  -12.4825 C   0  0  0  0  0  0  0  0  0  0  0  0
  -23.7259   -0.9655  -12.0977 C   0  0  0  0  0  0  0  0  0  0  0  0
  -21.5450    1.3463  -14.2002 C   0  0  0  0  0  0  0  0  0  0  0  0
  -20.3148    0.9138  -14.7188 C   0  0  0  0  0  0  0  0  0  0  0  0
  -19.3376    1.8321  -15.1052 C   0  0  0  0  0  0  0  0  0  0  0  0
  -19.6128    3.1800  -14.9716 C   0  0  0  0  0  0  0  0  0  0  0  0
  -20.7704    3.6548  -14.4739 N   0  0  0  0  0  0  0  0  0  0  0  0
  -21.6941    2.7335  -14.0991 C   0  0  0  0  0  0  0  0  0  0  0  0
  -27.5299   -1.6353   -9.5794 C   0  0  0  0  0  0  0  0  0  0  0  0
  -26.5077   -2.3372  -10.1739 C   0  0  0  0  0  0  0  0  0  0  0  0
  -26.5521   -1.9474  -11.4807 N   0  0  0  0  0  0  0  0  0  0  0  0
  -27.5283   -1.0384  -11.6782 N   0  0  0  0  0  0  0  0  0  0  0  0
  -28.1448   -0.8524  -10.5181 N   0  0  0  0  0  0  0  0  0  0  0  0
  -28.1522    0.6372   -4.9677 Cl  0  0  0  0  0  0  0  0  0  0  0  0
  -28.2503   -0.7331   -6.0043 C   0  0  0  0  0  0  0  0  0  0  0  0
  -28.7179   -1.9465   -5.5053 C   0  0  0  0  0  0  0  0  0  0  0  0
  -28.8046   -3.0536   -6.3494 C   0  0  0  0  0  0  0  0  0  0  0  0
  -28.4226   -2.9411   -7.6863 C   0  0  0  0  0  0  0  0  0  0  0  0
  -27.9410   -1.7250   -8.1925 C   0  0  0  0  0  0  0  0  0  0  0  0
  -27.8590   -0.6167   -7.3390 C   0  0  0  0  0  0  0  0  0  0  0  0
 19 20  1  0  0  0
 20 21  1  0  0  0
 20 25  2  0  0  0
 21 22  2  0  0  0
 22 23  1  0  0  0
 23 24  2  0  0  0
 24 14  1  0  0  0
 24 25  1  0  0  0
 14 15  2  0  0  0
 14 18  1  0  0  0
 15 16  1  0  0  0
 16  1  1  0  0  0
 16 17  1  0  0  0
  1  2  1  0  0  0
  2  3  1  0  0  0
  2  7  2  0  0  0
  3  4  2  0  0  0
  4  5  1  0  0  0
  5  8  1  0  0  0
  5  6  2  0  0  0
  8  9  1  0  0  0
  8 13  2  0  0  0
  9 10  2  0  0  0
 10 11  1  0  0  0
 11 12  2  0  0  0
 12 13  1  0  0  0
  6  7  1  0  0  0
 17 18  2  0  0  0
M  END
> <minimizedAffinity>
-10.05954

$$$$
