CHEMBL2001257


 39 42  0  0  0  0  0  0  0  0999 V2000
  -22.1377    1.1335  -14.2688 C   0  0  0  0  0  0  0  0  0  0  0  0
  -22.4036    2.4531  -13.9904 C   0  0  0  0  0  0  0  0  0  0  0  0
  -21.5233    3.4441  -14.1786 N   0  0  0  0  0  0  0  0  0  0  0  0
  -20.2897    3.1733  -14.6557 C   0  0  0  0  0  0  0  0  0  0  0  0
  -19.5265    4.3151  -14.8425 N   0  0  0  0  0  0  0  0  0  0  0  0
  -19.8840    1.8288  -14.9342 C   0  0  0  0  0  0  0  0  0  0  0  0
  -18.6088    1.2358  -15.3893 C   0  0  0  0  0  0  0  0  0  0  0  0
  -18.7093   -0.1361  -15.5217 C   0  0  0  0  0  0  0  0  0  0  0  0
  -20.2455   -0.7397  -15.1448 S   0  0  0  0  0  0  0  0  0  0  0  0
  -20.8523    0.8229  -14.7399 C   0  0  0  0  0  0  0  0  0  0  0  0
  -20.1130    5.1347  -14.7273 H   0  0  0  0  0  0  0  0  0  0  0  0
  -18.9454    4.3052  -15.6693 H   0  0  0  0  0  0  0  0  0  0  0  0
  -17.3112    1.8830  -15.6452 C   0  0  0  0  0  0  0  0  0  0  0  0
  -16.1405    1.2998  -15.1714 C   0  0  0  0  0  0  0  0  0  0  0  0
  -14.9097    1.9448  -15.2858 C   0  0  0  0  0  0  0  0  0  0  0  0
  -14.7794    3.1347  -15.9965 C   0  0  0  0  0  0  0  0  0  0  0  0
  -15.9304    3.6865  -16.5679 C   0  0  0  0  0  0  0  0  0  0  0  0
  -17.1866    3.0782  -16.3751 C   0  0  0  0  0  0  0  0  0  0  0  0
  -13.5395    3.8035  -16.1544 N   0  0  0  0  0  0  0  0  0  0  0  0
  -13.3238    4.9222  -16.9453 C   0  0  0  0  0  0  0  0  0  0  0  0
  -14.1901    5.5361  -17.5603 O   0  0  0  0  0  0  0  0  0  0  0  0
  -11.9813    5.2486  -17.0169 N   0  0  0  0  0  0  0  0  0  0  0  0
  -12.7753    3.5043  -15.5653 H   0  0  0  0  0  0  0  0  0  0  0  0
  -11.3508    4.4600  -16.9945 H   0  0  0  0  0  0  0  0  0  0  0  0
  -11.5539    6.3678  -17.7740 C   0  0  0  0  0  0  0  0  0  0  0  0
  -11.0538    6.1541  -19.0585 C   0  0  0  0  0  0  0  0  0  0  0  0
  -10.6965    7.2389  -19.8585 C   0  0  0  0  0  0  0  0  0  0  0  0
  -10.7795    8.5396  -19.3592 C   0  0  0  0  0  0  0  0  0  0  0  0
  -11.2291    8.7676  -18.0544 C   0  0  0  0  0  0  0  0  0  0  0  0
  -11.2851   10.1566  -17.4881 C   0  0  0  0  0  0  0  0  0  0  0  0
  -11.6267    7.6764  -17.2699 C   0  0  0  0  0  0  0  0  0  0  0  0
  -24.0087   -0.7772  -13.7479 C   0  0  0  0  0  0  0  0  0  0  0  0
  -23.1206    0.1291  -14.0474 C   0  0  0  0  0  0  0  0  0  0  0  0
  -25.0441   -1.8338  -13.3986 C   0  0  0  0  0  0  0  0  0  0  0  0
  -26.0638   -1.3253  -12.4623 N   0  0  0  0  0  0  0  0  0  0  0  0
  -27.7004   -1.9183  -14.2913 C   0  0  0  0  0  0  0  0  0  0  0  0
  -27.3715   -1.9161  -12.8002 C   0  0  0  0  0  0  0  0  0  0  0  0
  -25.6955   -1.4617  -11.0451 C   0  0  0  0  0  0  0  0  0  0  0  0
  -26.8161   -1.8415  -10.0787 C   0  0  0  0  0  0  0  0  0  0  0  0
 36 37  1  0  0  0
 37 35  1  0  0  0
 35 38  1  0  0  0
 35 34  1  0  0  0
 38 39  1  0  0  0
 34 32  1  0  0  0
 32 33  3  0  0  0
 33  1  1  0  0  0
  1  2  1  0  0  0
  1 10  2  0  0  0
  2  3  2  0  0  0
  3  4  1  0  0  0
  4  5  1  0  0  0
  4  6  2  0  0  0
  5 11  1  0  0  0
  5 12  1  0  0  0
  6  7  1  0  0  0
  6 10  1  0  0  0
  7 13  1  0  0  0
  7  8  2  0  0  0
 13 14  1  0  0  0
 13 18  2  0  0  0
 14 15  2  0  0  0
 15 16  1  0  0  0
 16 19  1  0  0  0
 16 17  2  0  0  0
 19 20  1  0  0  0
 19 23  1  0  0  0
 20 21  2  0  0  0
 20 22  1  0  0  0
 22 25  1  0  0  0
 22 24  1  0  0  0
 25 26  1  0  0  0
 25 31  2  0  0  0
 26 27  2  0  0  0
 27 28  1  0  0  0
 28 29  2  0  0  0
 29 30  1  0  0  0
 29 31  1  0  0  0
 17 18  1  0  0  0
  8  9  1  0  0  0
  9 10  1  0  0  0
M  END
> <minimizedAffinity>
-6.73096

$$$$
