CHEMBL354145


 34 38  0  0  0  0  0  0  0  0999 V2000
  -27.4021   -8.6892   -4.5932 C   0  0  0  0  0  0  0  0  0  0  0  0
  -27.6412   -7.3223   -4.7666 C   0  0  0  0  0  0  0  0  0  0  0  0
  -28.6282   -6.8556   -5.6629 C   0  0  0  0  0  0  0  0  0  0  0  0
  -28.9810   -5.5044   -5.8311 C   0  0  0  0  0  0  0  0  0  0  0  0
  -29.9739   -5.1276   -6.6548 N   0  0  0  0  0  0  0  0  0  0  0  0
  -30.6285   -6.1013   -7.2926 C   0  0  0  0  0  0  0  0  0  0  0  0
  -30.3606   -7.4102   -7.2254 N   0  0  0  0  0  0  0  0  0  0  0  0
  -29.3685   -7.7802   -6.4108 C   0  0  0  0  0  0  0  0  0  0  0  0
  -29.0573   -9.1295   -6.2939 C   0  0  0  0  0  0  0  0  0  0  0  0
  -28.0614   -9.6027   -5.4265 C   0  0  0  0  0  0  0  0  0  0  0  0
  -25.1482   -9.1176   -3.9589 C   0  0  0  0  0  0  0  0  0  0  0  0
  -26.5401   -9.1513   -3.6357 O   0  0  0  0  0  0  0  0  0  0  0  0
  -28.2808   -4.4999   -5.0988 N   0  0  0  0  0  0  0  0  0  0  0  0
  -27.2886   -4.7292   -5.0954 H   0  0  0  0  0  0  0  0  0  0  0  0
  -28.4714   -3.1105   -5.3052 C   0  0  0  0  0  0  0  0  0  0  0  0
  -28.9948   -2.2367   -4.3264 C   0  0  0  0  0  0  0  0  0  0  0  0
  -29.2355   -2.7324   -2.6814 Cl  0  0  0  0  0  0  0  0  0  0  0  0
  -29.2675   -0.8861   -4.6231 C   0  0  0  0  0  0  0  0  0  0  0  0
  -28.9875   -0.3630   -5.8849 C   0  0  0  0  0  0  0  0  0  0  0  0
  -28.3970   -1.2018   -6.8027 C   0  0  0  0  0  0  0  0  0  0  0  0
  -28.1390   -2.5276   -6.5244 C   0  0  0  0  0  0  0  0  0  0  0  0
  -27.5444   -3.1596   -7.5815 O   0  0  0  0  0  0  0  0  0  0  0  0
  -27.3878   -2.0591   -8.5065 C   0  0  0  0  0  0  0  0  0  0  0  0
  -28.0107   -0.8417   -8.0554 O   0  0  0  0  0  0  0  0  0  0  0  0
  -27.8823  -10.9670   -5.4879 O   0  0  0  0  0  0  0  0  0  0  0  0
  -26.8357  -11.4269   -6.3437 C   0  0  0  0  0  0  0  0  0  0  0  0
  -27.2716  -11.5525   -7.7917 C   0  0  0  0  0  0  0  0  0  0  0  0
  -28.2383  -12.4660   -8.2207 C   0  0  0  0  0  0  0  0  0  0  0  0
  -28.6813  -12.4081   -9.5365 C   0  0  0  0  0  0  0  0  0  0  0  0
  -28.2304  -11.5135  -10.4430 N   0  0  0  0  0  0  0  0  0  0  0  0
  -27.2932  -10.6419  -10.0221 C   0  0  0  0  0  0  0  0  0  0  0  0
  -26.7867  -10.6229   -8.7230 C   0  0  0  0  0  0  0  0  0  0  0  0
  -26.8488   -9.6719  -10.9837 C   0  0  0  0  0  0  0  0  0  0  0  0
  -26.5102   -8.8514  -11.7344 N   0  0  0  0  0  0  0  0  0  0  0  0
 11 12  1  0  0  0
 12  1  1  0  0  0
  1  2  1  0  0  0
  1 10  2  0  0  0
  2  3  2  0  0  0
  3  4  1  0  0  0
  3  8  1  0  0  0
  4 13  1  0  0  0
  4  5  2  0  0  0
 13 15  1  0  0  0
 13 14  1  0  0  0
 15 16  1  0  0  0
 15 21  2  0  0  0
 16 17  1  0  0  0
 16 18  2  0  0  0
 18 19  1  0  0  0
 19 20  2  0  0  0
 20 21  1  0  0  0
 20 24  1  0  0  0
 21 22  1  0  0  0
 22 23  1  0  0  0
 23 24  1  0  0  0
  5  6  1  0  0  0
  6  7  2  0  0  0
  7  8  1  0  0  0
  8  9  2  0  0  0
  9 10  1  0  0  0
 10 25  1  0  0  0
 25 26  1  0  0  0
 26 27  1  0  0  0
 27 28  1  0  0  0
 27 32  2  0  0  0
 28 29  2  0  0  0
 29 30  1  0  0  0
 30 31  2  0  0  0
 31 33  1  0  0  0
 31 32  1  0  0  0
 33 34  3  0  0  0
M  END
> <minimizedAffinity>
-7.75629

$$$$
