CHEMBL3644550


 30 33  0  0  0  0  0  0  0  0999 V2000
  -25.1795   -1.9354  -11.8985 C   0  0  0  0  0  0  0  0  0  0  0  0
  -24.0419   -1.2681  -11.4569 C   0  0  0  0  0  0  0  0  0  0  0  0
  -23.2913   -0.4572  -12.3135 C   0  0  0  0  0  0  0  0  0  0  0  0
  -23.6030   -0.2899  -13.6717 C   0  0  0  0  0  0  0  0  0  0  0  0
  -24.7154   -1.0331  -14.1462 C   0  0  0  0  0  0  0  0  0  0  0  0
  -25.2629   -0.9639  -15.5509 C   0  0  0  0  0  0  0  0  0  0  0  0
  -25.4736   -1.8588  -13.2579 C   0  0  0  0  0  0  0  0  0  0  0  0
  -22.8338    0.5764  -14.4392 N   0  0  0  0  0  0  0  0  0  0  0  0
  -23.0900    2.0260  -14.4766 C   0  0  0  0  0  0  0  0  0  0  0  0
  -21.9850    2.8036  -13.7483 C   0  0  0  0  0  0  0  0  0  0  0  0
  -20.6074    2.3590  -14.1697 C   0  0  0  0  0  0  0  0  0  0  0  0
  -19.4877    3.1595  -13.9399 C   0  0  0  0  0  0  0  0  0  0  0  0
  -18.2418    2.6821  -14.3241 C   0  0  0  0  0  0  0  0  0  0  0  0
  -18.0402    1.4832  -14.9084 N   0  0  0  0  0  0  0  0  0  0  0  0
  -19.1351    0.7189  -15.1032 C   0  0  0  0  0  0  0  0  0  0  0  0
  -20.4284    1.0946  -14.7476 C   0  0  0  0  0  0  0  0  0  0  0  0
  -21.5642    0.1485  -15.0292 C   0  0  0  0  0  0  0  0  0  0  0  0
  -27.3959   -2.8656   -9.1232 N   0  0  0  0  0  0  0  0  0  0  0  0
  -26.6791   -2.0119   -9.9499 C   0  0  0  0  0  0  0  0  0  0  0  0
  -26.6166   -0.7961   -9.7848 O   0  0  0  0  0  0  0  0  0  0  0  0
  -26.0393   -2.6461  -11.0097 N   0  0  0  0  0  0  0  0  0  0  0  0
  -27.4363   -3.8445   -9.3601 H   0  0  0  0  0  0  0  0  0  0  0  0
  -26.4538   -3.4971  -11.3542 H   0  0  0  0  0  0  0  0  0  0  0  0
  -28.2519    0.6089   -5.6481 C   0  0  0  0  0  0  0  0  0  0  0  0
  -28.5184   -0.7412   -6.2437 C   0  0  0  0  0  0  0  0  0  0  0  0
  -29.4470   -1.5837   -5.6221 C   0  0  0  0  0  0  0  0  0  0  0  0
  -29.7101   -2.8337   -6.1530 C   0  0  0  0  0  0  0  0  0  0  0  0
  -29.0449   -3.2538   -7.3039 C   0  0  0  0  0  0  0  0  0  0  0  0
  -28.0981   -2.4486   -7.9516 C   0  0  0  0  0  0  0  0  0  0  0  0
  -27.8487   -1.1776   -7.4152 C   0  0  0  0  0  0  0  0  0  0  0  0
 24 25  1  0  0  0
 25 26  1  0  0  0
 25 30  2  0  0  0
 26 27  2  0  0  0
 27 28  1  0  0  0
 28 29  2  0  0  0
 29 18  1  0  0  0
 29 30  1  0  0  0
 18 19  1  0  0  0
 18 22  1  0  0  0
 19 20  2  0  0  0
 19 21  1  0  0  0
 21  1  1  0  0  0
 21 23  1  0  0  0
  1  2  1  0  0  0
  1  7  2  0  0  0
  2  3  2  0  0  0
  3  4  1  0  0  0
  4  8  1  0  0  0
  4  5  2  0  0  0
  8  9  1  0  0  0
  8 17  1  0  0  0
  9 10  1  0  0  0
 10 11  1  0  0  0
 11 12  1  0  0  0
 11 16  2  0  0  0
 12 13  2  0  0  0
 13 14  1  0  0  0
 14 15  2  0  0  0
 15 16  1  0  0  0
 16 17  1  0  0  0
  5  6  1  0  0  0
  5  7  1  0  0  0
M  END
> <minimizedAffinity>
-10.10974

$$$$
