CHEMBL3422067


 39 44  0  0  0  0  0  0  0  0999 V2000
  -28.6531  -10.7183   -8.4563 C   0  0  0  0  0  0  0  0  0  0  0  0
  -29.6571  -11.5699   -8.9295 C   0  0  0  0  0  0  0  0  0  0  0  0
  -31.0141  -11.2478   -8.7740 C   0  0  0  0  0  0  0  0  0  0  0  0
  -31.3225  -10.0362   -8.1452 C   0  0  0  0  0  0  0  0  0  0  0  0
  -32.5145   -9.4393   -7.8408 N   0  0  0  0  0  0  0  0  0  0  0  0
  -32.4040   -8.2568   -7.2165 N   0  0  0  0  0  0  0  0  0  0  0  0
  -31.0733   -8.0441   -7.1346 C   0  0  0  0  0  0  0  0  0  0  0  0
  -30.3535   -9.1530   -7.6858 C   0  0  0  0  0  0  0  0  0  0  0  0
  -28.9994   -9.5069   -7.8396 C   0  0  0  0  0  0  0  0  0  0  0  0
  -33.4464   -9.7958   -8.0241 H   0  0  0  0  0  0  0  0  0  0  0  0
  -30.5348   -6.8221   -6.5302 C   0  0  0  0  0  0  0  0  0  0  0  0
  -30.9081   -6.4378   -5.2390 C   0  0  0  0  0  0  0  0  0  0  0  0
  -30.3771   -5.2783   -4.6516 C   0  0  0  0  0  0  0  0  0  0  0  0
  -29.4694   -4.4601   -5.3334 C   0  0  0  0  0  0  0  0  0  0  0  0
  -29.1108   -4.8571   -6.6283 C   0  0  0  0  0  0  0  0  0  0  0  0
  -29.6385   -6.0065   -7.2244 C   0  0  0  0  0  0  0  0  0  0  0  0
  -28.9308   -3.3157   -4.7862 N   0  0  0  0  0  0  0  0  0  0  0  0
  -29.7338   -2.2690   -4.1403 C   0  0  0  0  0  0  0  0  0  0  0  0
  -29.6238   -0.9451   -4.9097 C   0  0  0  0  0  0  0  0  0  0  0  0
  -28.2537   -0.5570   -5.1103 O   0  0  0  0  0  0  0  0  0  0  0  0
  -27.5573   -1.5705   -5.8538 C   0  0  0  0  0  0  0  0  0  0  0  0
  -27.5506   -2.9151   -5.1089 C   0  0  0  0  0  0  0  0  0  0  0  0
  -26.6273  -10.7407   -9.6673 O   0  0  0  0  0  0  0  0  0  0  0  0
  -27.2175  -11.0796   -8.6473 C   0  0  0  0  0  0  0  0  0  0  0  0
  -26.6312  -11.8034   -7.6230 N   0  0  0  0  0  0  0  0  0  0  0  0
  -27.2228  -12.2577   -6.9388 H   0  0  0  0  0  0  0  0  0  0  0  0
  -25.2689  -12.3054   -7.6850 C   0  0  0  0  0  0  0  0  0  0  0  0
  -24.2506  -11.7254   -6.6042 C   0  0  0  0  0  0  0  0  0  0  0  0
  -24.0302  -10.2186   -6.9308 C   0  0  0  0  0  0  0  0  0  0  0  0
  -22.7584   -9.5835   -6.3696 C   0  0  0  0  0  0  0  0  0  0  0  0
  -21.4907  -10.3879   -6.6205 C   0  0  0  0  0  0  0  0  0  0  0  0
  -21.6335  -11.8802   -6.3644 C   0  0  0  0  0  0  0  0  0  0  0  0
  -22.9125  -12.4645   -6.9557 C   0  0  0  0  0  0  0  0  0  0  0  0
  -24.8049  -12.0374   -5.2482 N   0  0  0  0  0  0  0  0  0  0  0  0
  -25.8716  -11.1888   -4.6806 C   0  0  0  0  0  0  0  0  0  0  0  0
  -25.3849  -10.0796   -3.7267 C   0  0  0  0  0  0  0  0  0  0  0  0
  -24.5192  -10.5849   -2.7041 O   0  0  0  0  0  0  0  0  0  0  0  0
  -23.4225  -11.3018   -3.2806 C   0  0  0  0  0  0  0  0  0  0  0  0
  -23.9256  -12.4657   -4.1492 C   0  0  0  0  0  0  0  0  0  0  0  0
 23 24  2  0  0  0
 24 25  1  0  0  0
 24  1  1  0  0  0
 25 27  1  0  0  0
 25 26  1  0  0  0
 27 28  1  0  0  0
 28 34  1  0  0  0
 28 29  1  0  0  0
 28 33  1  0  0  0
 34 35  1  0  0  0
 34 39  1  0  0  0
 35 36  1  0  0  0
 36 37  1  0  0  0
 37 38  1  0  0  0
 38 39  1  0  0  0
 29 30  1  0  0  0
 30 31  1  0  0  0
 31 32  1  0  0  0
 32 33  1  0  0  0
  1  2  1  0  0  0
  1  9  2  0  0  0
  2  3  2  0  0  0
  3  4  1  0  0  0
  4  5  1  0  0  0
  4  8  2  0  0  0
  5  6  1  0  0  0
  5 10  1  0  0  0
  6  7  2  0  0  0
  7 11  1  0  0  0
  7  8  1  0  0  0
 11 12  1  0  0  0
 11 16  2  0  0  0
 12 13  2  0  0  0
 13 14  1  0  0  0
 14 17  1  0  0  0
 14 15  2  0  0  0
 17 18  1  0  0  0
 17 22  1  0  0  0
 18 19  1  0  0  0
 19 20  1  0  0  0
 20 21  1  0  0  0
 21 22  1  0  0  0
 15 16  1  0  0  0
  8  9  1  0  0  0
M  END
> <minimizedAffinity>
-9.16710

$$$$
