CHEMBL249094


 35 40  0  0  0  0  0  0  0  0999 V2000
  -29.4485   -8.1410   -6.8176 C   0  0  0  0  0  0  0  0  0  0  0  0
  -30.2183   -8.4439   -7.8780 N   0  0  0  0  0  0  0  0  0  0  0  0
  -29.6030   -9.5298   -8.3973 N   0  0  0  0  0  0  0  0  0  0  0  0
  -28.5241   -9.9527   -7.6787 C   0  0  0  0  0  0  0  0  0  0  0  0
  -27.7809  -11.0441   -7.9222 N   0  0  0  0  0  0  0  0  0  0  0  0
  -26.7822  -11.2014   -7.0094 C   0  0  0  0  0  0  0  0  0  0  0  0
  -26.4364  -10.3364   -5.9568 C   0  0  0  0  0  0  0  0  0  0  0  0
  -27.2839   -9.2285   -5.7733 C   0  0  0  0  0  0  0  0  0  0  0  0
  -28.3658   -9.0401   -6.6529 C   0  0  0  0  0  0  0  0  0  0  0  0
  -29.9691   -9.9540   -9.2410 H   0  0  0  0  0  0  0  0  0  0  0  0
  -29.3088   -3.8225   -4.4433 C   0  0  0  0  0  0  0  0  0  0  0  0
  -30.2041   -3.1970   -3.5507 C   0  0  0  0  0  0  0  0  0  0  0  0
  -31.3949   -3.8150   -3.1536 C   0  0  0  0  0  0  0  0  0  0  0  0
  -31.7533   -5.0795   -3.6311 C   0  0  0  0  0  0  0  0  0  0  0  0
  -30.8599   -5.6867   -4.5124 C   0  0  0  0  0  0  0  0  0  0  0  0
  -30.8906   -6.8817   -5.1830 N   0  0  0  0  0  0  0  0  0  0  0  0
  -29.7511   -6.9815   -5.9361 C   0  0  0  0  0  0  0  0  0  0  0  0
  -28.9823   -5.9251   -5.7791 N   0  0  0  0  0  0  0  0  0  0  0  0
  -29.6626   -5.1019   -4.9120 C   0  0  0  0  0  0  0  0  0  0  0  0
  -31.6158   -7.5832   -5.1552 H   0  0  0  0  0  0  0  0  0  0  0  0
  -28.0632   -3.1232   -4.9091 C   0  0  0  0  0  0  0  0  0  0  0  0
  -27.9874   -1.8222   -4.3291 O   0  0  0  0  0  0  0  0  0  0  0  0
  -27.7685   -1.3289   -6.6419 C   0  0  0  0  0  0  0  0  0  0  0  0
  -27.4985   -0.8220   -5.2293 C   0  0  0  0  0  0  0  0  0  0  0  0
  -28.1887    0.5252   -5.0225 C   0  0  0  0  0  0  0  0  0  0  0  0
  -25.2854  -10.5941   -5.0510 C   0  0  0  0  0  0  0  0  0  0  0  0
  -25.4866  -10.5577   -3.6607 C   0  0  0  0  0  0  0  0  0  0  0  0
  -24.5483  -10.7994   -2.7172 N   0  0  0  0  0  0  0  0  0  0  0  0
  -23.3249  -11.1294   -3.1695 C   0  0  0  0  0  0  0  0  0  0  0  0
  -22.9745  -11.2151   -4.5152 C   0  0  0  0  0  0  0  0  0  0  0  0
  -21.6739  -11.5978   -4.8917 C   0  0  0  0  0  0  0  0  0  0  0  0
  -21.3155  -11.6831   -6.2329 C   0  0  0  0  0  0  0  0  0  0  0  0
  -22.2377  -11.3372   -7.2082 C   0  0  0  0  0  0  0  0  0  0  0  0
  -23.5234  -10.9315   -6.8397 C   0  0  0  0  0  0  0  0  0  0  0  0
  -23.9580  -10.9085   -5.4876 C   0  0  0  0  0  0  0  0  0  0  0  0
 23 24  1  0  0  0
 24 25  1  0  0  0
 24 22  1  0  0  0
 22 21  1  0  0  0
 21 11  1  0  0  0
 11 12  1  0  0  0
 11 19  2  0  0  0
 12 13  2  0  0  0
 13 14  1  0  0  0
 14 15  2  0  0  0
 15 16  1  0  0  0
 15 19  1  0  0  0
 16 17  1  0  0  0
 16 20  1  0  0  0
 17  1  1  0  0  0
 17 18  2  0  0  0
  1  2  2  0  0  0
  1  9  1  0  0  0
  2  3  1  0  0  0
  3  4  1  0  0  0
  3 10  1  0  0  0
  4  5  1  0  0  0
  4  9  2  0  0  0
  5  6  2  0  0  0
  6  7  1  0  0  0
  7 26  1  0  0  0
  7  8  2  0  0  0
 26 27  1  0  0  0
 26 35  2  0  0  0
 27 28  2  0  0  0
 28 29  1  0  0  0
 29 30  2  0  0  0
 30 31  1  0  0  0
 30 35  1  0  0  0
 31 32  2  0  0  0
 32 33  1  0  0  0
 33 34  2  0  0  0
 34 35  1  0  0  0
  8  9  1  0  0  0
 18 19  1  0  0  0
M  END
> <minimizedAffinity>
-9.76309

$$$$
