CHEMBL212499


 39 44  0  0  0  0  0  0  0  0999 V2000
  -29.8509   -6.3885   -5.7818 C   0  0  0  0  0  0  0  0  0  0  0  0
  -29.1774   -6.9904   -4.7779 N   0  0  0  0  0  0  0  0  0  0  0  0
  -29.6438   -8.2738   -4.7915 N   0  0  0  0  0  0  0  0  0  0  0  0
  -30.6785   -8.5113   -5.6624 C   0  0  0  0  0  0  0  0  0  0  0  0
  -30.9119   -7.2331   -6.1889 C   0  0  0  0  0  0  0  0  0  0  0  0
  -31.5903   -7.3486   -7.4980 C   0  0  0  0  0  0  0  0  0  0  0  0
  -30.6823   -8.5245   -7.8901 C   0  0  0  0  0  0  0  0  0  0  0  0
  -29.3616   -8.4644   -8.4013 C   0  0  0  0  0  0  0  0  0  0  0  0
  -28.5526   -9.6115   -8.3039 C   0  0  0  0  0  0  0  0  0  0  0  0
  -29.1709  -10.7910   -7.9211 C   0  0  0  0  0  0  0  0  0  0  0  0
  -30.2688  -10.7011   -7.0707 C   0  0  0  0  0  0  0  0  0  0  0  0
  -30.8208   -9.4599   -6.8458 C   0  0  0  0  0  0  0  0  0  0  0  0
  -29.1950   -8.9595   -4.1743 H   0  0  0  0  0  0  0  0  0  0  0  0
  -28.2352   -3.3813   -7.8599 C   0  0  0  0  0  0  0  0  0  0  0  0
  -29.1296   -2.8640   -6.9766 C   0  0  0  0  0  0  0  0  0  0  0  0
  -29.8573   -3.8749   -6.3232 C   0  0  0  0  0  0  0  0  0  0  0  0
  -29.3959   -5.1628   -6.5771 C   0  0  0  0  0  0  0  0  0  0  0  0
  -28.3293   -5.1112   -7.9169 S   0  0  0  0  0  0  0  0  0  0  0  0
  -27.2905   -2.5886   -8.7290 C   0  0  0  0  0  0  0  0  0  0  0  0
  -28.0700   -1.7792   -9.7639 C   0  0  0  0  0  0  0  0  0  0  0  0
  -25.9046   -1.2815  -10.7003 N   0  0  0  0  0  0  0  0  0  0  0  0
  -27.2215   -1.5909  -11.0021 C   0  0  0  0  0  0  0  0  0  0  0  0
  -27.7260   -1.7598  -12.1052 O   0  0  0  0  0  0  0  0  0  0  0  0
  -25.6625   -1.1572   -9.7217 H   0  0  0  0  0  0  0  0  0  0  0  0
  -23.2394    1.8355  -13.4407 C   0  0  0  0  0  0  0  0  0  0  0  0
  -23.5139    0.4501  -12.9730 C   0  0  0  0  0  0  0  0  0  0  0  0
  -22.7464   -0.6522  -13.4138 C   0  0  0  0  0  0  0  0  0  0  0  0
  -22.9991   -1.8978  -12.9739 C   0  0  0  0  0  0  0  0  0  0  0  0
  -24.0485   -2.1748  -12.0785 C   0  0  0  0  0  0  0  0  0  0  0  0
  -24.8403   -1.0897  -11.6234 C   0  0  0  0  0  0  0  0  0  0  0  0
  -24.5665    0.2015  -12.0693 C   0  0  0  0  0  0  0  0  0  0  0  0
  -27.0224   -9.5644   -8.2637 C   0  0  0  0  0  0  0  0  0  0  0  0
  -26.4307  -10.5136   -7.3159 N   0  0  0  0  0  0  0  0  0  0  0  0
  -25.1539  -11.0249   -7.8283 C   0  0  0  0  0  0  0  0  0  0  0  0
  -24.5092  -12.0215   -6.8432 C   0  0  0  0  0  0  0  0  0  0  0  0
  -24.2812  -11.4883   -5.4857 N   0  0  0  0  0  0  0  0  0  0  0  0
  -23.1723  -10.5377   -5.4617 C   0  0  0  0  0  0  0  0  0  0  0  0
  -25.5331  -10.8794   -4.9908 C   0  0  0  0  0  0  0  0  0  0  0  0
  -26.2315   -9.9083   -5.9798 C   0  0  0  0  0  0  0  0  0  0  0  0
 25 26  1  0  0  0
 26 27  1  0  0  0
 26 31  2  0  0  0
 27 28  2  0  0  0
 28 29  1  0  0  0
 29 30  2  0  0  0
 30 21  1  0  0  0
 30 31  1  0  0  0
 21 22  1  0  0  0
 21 24  1  0  0  0
 22 23  2  0  0  0
 22 20  1  0  0  0
 20 19  1  0  0  0
 19 14  1  0  0  0
 14 15  2  0  0  0
 14 18  1  0  0  0
 15 16  1  0  0  0
 16 17  2  0  0  0
 17  1  1  0  0  0
 17 18  1  0  0  0
  1  2  2  0  0  0
  1  5  1  0  0  0
  2  3  1  0  0  0
  3  4  1  0  0  0
  3 13  1  0  0  0
  4  5  2  0  0  0
  4 12  1  0  0  0
  5  6  1  0  0  0
  6  7  1  0  0  0
  7  8  1  0  0  0
  7 12  2  0  0  0
  8  9  2  0  0  0
  9 32  1  0  0  0
  9 10  1  0  0  0
 32 33  1  0  0  0
 33 34  1  0  0  0
 33 39  1  0  0  0
 34 35  1  0  0  0
 35 36  1  0  0  0
 36 37  1  0  0  0
 36 38  1  0  0  0
 38 39  1  0  0  0
 10 11  2  0  0  0
 11 12  1  0  0  0
M  END
> <minimizedAffinity>
-9.30747

$$$$
