CHEMBL1085316


 42 47  0  0  0  0  0  0  0  0999 V2000
  -27.1318   -1.7836  -11.1268 C   0  0  0  0  0  0  0  0  0  0  0  0
  -27.6748   -2.3731  -12.2905 C   0  0  0  0  0  0  0  0  0  0  0  0
  -27.0012   -2.0671  -13.3939 N   0  0  0  0  0  0  0  0  0  0  0  0
  -26.0059   -1.2373  -12.9581 N   0  0  0  0  0  0  0  0  0  0  0  0
  -24.9836   -0.6390  -13.7415 C   0  0  0  0  0  0  0  0  0  0  0  0
  -25.0213   -0.8865  -15.1126 N   0  0  0  0  0  0  0  0  0  0  0  0
  -24.0385    0.0695  -13.1155 C   0  0  0  0  0  0  0  0  0  0  0  0
  -24.1802    0.1938  -11.6276 C   0  0  0  0  0  0  0  0  0  0  0  0
  -25.1020   -0.3346  -10.9035 N   0  0  0  0  0  0  0  0  0  0  0  0
  -26.0429   -1.0752  -11.5730 C   0  0  0  0  0  0  0  0  0  0  0  0
  -25.5859   -1.7168  -15.3267 H   0  0  0  0  0  0  0  0  0  0  0  0
  -24.1043   -0.9026  -15.5527 H   0  0  0  0  0  0  0  0  0  0  0  0
  -28.2263   -3.2077   -7.8128 C   0  0  0  0  0  0  0  0  0  0  0  0
  -28.1382   -2.0508   -7.0313 C   0  0  0  0  0  0  0  0  0  0  0  0
  -27.7797   -0.8203   -7.5781 C   0  0  0  0  0  0  0  0  0  0  0  0
  -27.4698   -0.7292   -8.9279 C   0  0  0  0  0  0  0  0  0  0  0  0
  -27.5429   -1.8610   -9.7405 C   0  0  0  0  0  0  0  0  0  0  0  0
  -27.9573   -3.0810   -9.1816 C   0  0  0  0  0  0  0  0  0  0  0  0
  -30.8928   -7.7639   -6.1389 C   0  0  0  0  0  0  0  0  0  0  0  0
  -29.7695   -6.8541   -6.3253 N   0  0  0  0  0  0  0  0  0  0  0  0
  -29.5125   -6.6162   -7.7638 C   0  0  0  0  0  0  0  0  0  0  0  0
  -28.3021   -5.6814   -7.9866 C   0  0  0  0  0  0  0  0  0  0  0  0
  -28.4856   -4.4321   -7.2420 N   0  0  0  0  0  0  0  0  0  0  0  0
  -28.8460   -4.5664   -5.8275 C   0  0  0  0  0  0  0  0  0  0  0  0
  -30.0275   -5.5494   -5.6699 C   0  0  0  0  0  0  0  0  0  0  0  0
  -22.8895    0.6754  -13.7921 C   0  0  0  0  0  0  0  0  0  0  0  0
  -22.7724    2.0586  -13.8402 C   0  0  0  0  0  0  0  0  0  0  0  0
  -21.6324    2.6372  -14.3850 C   0  0  0  0  0  0  0  0  0  0  0  0
  -20.6113    1.8495  -14.9270 C   0  0  0  0  0  0  0  0  0  0  0  0
  -20.7428    0.4601  -14.9058 C   0  0  0  0  0  0  0  0  0  0  0  0
  -21.8825   -0.1262  -14.3430 C   0  0  0  0  0  0  0  0  0  0  0  0
  -19.4612    2.4153  -15.5113 N   0  0  0  0  0  0  0  0  0  0  0  0
  -18.1869    2.3620  -14.9728 C   0  0  0  0  0  0  0  0  0  0  0  0
  -17.8571    1.7888  -13.9358 O   0  0  0  0  0  0  0  0  0  0  0  0
  -19.5956    2.9257  -16.3714 H   0  0  0  0  0  0  0  0  0  0  0  0
  -17.1464    3.0663  -15.8125 C   0  0  0  0  0  0  0  0  0  0  0  0
  -16.0056    2.0959  -16.1175 C   0  0  0  0  0  0  0  0  0  0  0  0
  -14.6178    2.7071  -16.0052 C   0  0  0  0  0  0  0  0  0  0  0  0
  -13.8447    2.2638  -14.7700 C   0  0  0  0  0  0  0  0  0  0  0  0
  -12.7945    3.3452  -14.5529 C   0  0  0  0  0  0  0  0  0  0  0  0
  -13.2816    4.5787  -15.3116 C   0  0  0  0  0  0  0  0  0  0  0  0
  -14.6660    4.2261  -15.8399 C   0  0  0  0  0  0  0  0  0  0  0  0
 19 20  1  0  0  0
 20 21  1  0  0  0
 20 25  1  0  0  0
 21 22  1  0  0  0
 22 23  1  0  0  0
 23 13  1  0  0  0
 23 24  1  0  0  0
 13 14  1  0  0  0
 13 18  2  0  0  0
 14 15  2  0  0  0
 15 16  1  0  0  0
 16 17  2  0  0  0
 17  1  1  0  0  0
 17 18  1  0  0  0
  1  2  1  0  0  0
  1 10  2  0  0  0
  2  3  2  0  0  0
  3  4  1  0  0  0
  4  5  1  0  0  0
  4 10  1  0  0  0
  5  6  1  0  0  0
  5  7  2  0  0  0
  6 11  1  0  0  0
  6 12  1  0  0  0
  7 26  1  0  0  0
  7  8  1  0  0  0
 26 27  1  0  0  0
 26 31  2  0  0  0
 27 28  2  0  0  0
 28 29  1  0  0  0
 29 32  1  0  0  0
 29 30  2  0  0  0
 32 33  1  0  0  0
 32 35  1  0  0  0
 33 34  2  0  0  0
 33 36  1  0  0  0
 36 37  1  0  0  0
 37 38  1  0  0  0
 38 39  1  0  0  0
 38 42  1  0  0  0
 39 40  1  0  0  0
 40 41  1  0  0  0
 41 42  1  0  0  0
 30 31  1  0  0  0
  8  9  2  0  0  0
  9 10  1  0  0  0
 24 25  1  0  0  0
M  END
> <minimizedAffinity>
-10.02582

$$$$
