CHEMBL1908397


 27 30  0  0  0  0  0  0  0  0999 V2000
  -14.5203   -2.8342  -12.5592 C   0  0  0  0  0  0  0  0  0  0  0  0
  -15.5317   -2.1221  -11.8910 C   0  0  0  0  0  0  0  0  0  0  0  0
  -15.9629   -0.8739  -12.3663 C   0  0  0  0  0  0  0  0  0  0  0  0
  -15.3894   -0.3409  -13.5157 C   0  0  0  0  0  0  0  0  0  0  0  0
  -14.4089   -1.0757  -14.2052 C   0  0  0  0  0  0  0  0  0  0  0  0
  -14.0010   -2.3280  -13.7508 C   0  0  0  0  0  0  0  0  0  0  0  0
  -13.1566   -4.1479  -11.2195 O   0  0  0  0  0  0  0  0  0  0  0  0
  -14.0886   -4.1530  -12.0237 C   0  0  0  0  0  0  0  0  0  0  0  0
  -14.7226   -5.3299  -12.4281 N   0  0  0  0  0  0  0  0  0  0  0  0
  -14.4163   -6.5702  -11.7081 C   0  0  0  0  0  0  0  0  0  0  0  0
  -14.1735   -7.7495  -12.6666 C   0  0  0  0  0  0  0  0  0  0  0  0
  -15.2756   -7.9456  -13.6292 N   0  0  0  0  0  0  0  0  0  0  0  0
  -15.4712   -6.6976  -14.3855 C   0  0  0  0  0  0  0  0  0  0  0  0
  -15.7273   -5.4700  -13.4917 C   0  0  0  0  0  0  0  0  0  0  0  0
  -16.1275   -8.1453  -13.1046 H   0  0  0  0  0  0  0  0  0  0  0  0
  -15.7163    0.9691  -14.0742 C   0  0  0  0  0  0  0  0  0  0  0  0
  -16.3785    1.0340  -15.2476 C   0  0  0  0  0  0  0  0  0  0  0  0
  -17.4036    2.0194  -15.4918 C   0  0  0  0  0  0  0  0  0  0  0  0
  -17.1550    3.3358  -15.5801 N   0  0  0  0  0  0  0  0  0  0  0  0
  -18.3206    3.9005  -15.2325 N   0  0  0  0  0  0  0  0  0  0  0  0
  -19.3041    3.0057  -14.9245 C   0  0  0  0  0  0  0  0  0  0  0  0
  -20.5556    3.1638  -14.3263 C   0  0  0  0  0  0  0  0  0  0  0  0
  -21.3384    2.0141  -14.1852 C   0  0  0  0  0  0  0  0  0  0  0  0
  -20.9053    0.7789  -14.6680 C   0  0  0  0  0  0  0  0  0  0  0  0
  -19.6235    0.6333  -15.2105 C   0  0  0  0  0  0  0  0  0  0  0  0
  -18.7902    1.7670  -15.2921 C   0  0  0  0  0  0  0  0  0  0  0  0
  -18.3521    4.9108  -15.1577 H   0  0  0  0  0  0  0  0  0  0  0  0
  7  8  2  0  0  0
  8  1  1  0  0  0
  8  9  1  0  0  0
  1  2  1  0  0  0
  1  6  2  0  0  0
  2  3  2  0  0  0
  3  4  1  0  0  0
  4 16  1  0  0  0
  4  5  2  0  0  0
 16 17  2  0  0  0
 17 18  1  0  0  0
 18 19  2  0  0  0
 18 26  1  0  0  0
 19 20  1  0  0  0
 20 21  1  0  0  0
 20 27  1  0  0  0
 21 22  1  0  0  0
 21 26  2  0  0  0
 22 23  2  0  0  0
 23 24  1  0  0  0
 24 25  2  0  0  0
 25 26  1  0  0  0
  5  6  1  0  0  0
  9 10  1  0  0  0
  9 14  1  0  0  0
 10 11  1  0  0  0
 11 12  1  0  0  0
 12 13  1  0  0  0
 12 15  1  0  0  0
 13 14  1  0  0  0
M  END
> <minimizedAffinity>
-9.55834

$$$$
