CHEMBL403070


 31 34  0  0  0  0  0  0  0  0999 V2000
  -29.4682   -3.6557   -6.2488 C   0  0  0  0  0  0  0  0  0  0  0  0
  -29.6934   -3.9659   -7.5946 C   0  0  0  0  0  0  0  0  0  0  0  0
  -29.1011   -3.2378   -8.6247 C   0  0  0  0  0  0  0  0  0  0  0  0
  -28.2808   -2.1435   -8.3589 C   0  0  0  0  0  0  0  0  0  0  0  0
  -28.0386   -1.8139   -7.0244 C   0  0  0  0  0  0  0  0  0  0  0  0
  -28.5895   -2.5919   -5.9889 C   0  0  0  0  0  0  0  0  0  0  0  0
  -28.0320   -6.7419   -6.3365 N   0  0  0  0  0  0  0  0  0  0  0  0
  -28.9574   -6.8412   -5.3691 C   0  0  0  0  0  0  0  0  0  0  0  0
  -29.1263   -7.9833   -4.7047 N   0  0  0  0  0  0  0  0  0  0  0  0
  -30.0760   -7.6863   -3.8052 N   0  0  0  0  0  0  0  0  0  0  0  0
  -30.5241   -6.4017   -3.8716 C   0  0  0  0  0  0  0  0  0  0  0  0
  -31.4468   -5.8653   -3.0543 N   0  0  0  0  0  0  0  0  0  0  0  0
  -31.7023   -4.5753   -3.3351 C   0  0  0  0  0  0  0  0  0  0  0  0
  -31.1152   -3.8507   -4.3607 C   0  0  0  0  0  0  0  0  0  0  0  0
  -30.1439   -4.4440   -5.2017 C   0  0  0  0  0  0  0  0  0  0  0  0
  -29.8336   -5.7993   -4.9203 C   0  0  0  0  0  0  0  0  0  0  0  0
  -27.3945   -7.5265   -6.4131 H   0  0  0  0  0  0  0  0  0  0  0  0
  -27.5775   -5.8501   -6.4973 H   0  0  0  0  0  0  0  0  0  0  0  0
  -30.3793   -8.3950   -3.1509 H   0  0  0  0  0  0  0  0  0  0  0  0
  -27.7054   -1.3571   -9.3819 N   0  0  0  0  0  0  0  0  0  0  0  0
  -26.7411   -1.7927  -10.2660 C   0  0  0  0  0  0  0  0  0  0  0  0
  -26.1885   -2.8819  -10.2594 O   0  0  0  0  0  0  0  0  0  0  0  0
  -26.4767   -0.8791  -11.2623 N   0  0  0  0  0  0  0  0  0  0  0  0
  -28.0410   -0.4111   -9.4860 H   0  0  0  0  0  0  0  0  0  0  0  0
  -26.5912    0.0989  -11.0429 H   0  0  0  0  0  0  0  0  0  0  0  0
  -25.5035   -1.2364  -12.2926 C   0  0  0  0  0  0  0  0  0  0  0  0
  -24.3188   -0.2589  -12.2900 C   0  0  0  0  0  0  0  0  0  0  0  0
  -23.3654   -0.5007  -13.4565 C   0  0  0  0  0  0  0  0  0  0  0  0
  -24.1111   -0.5188  -14.7861 C   0  0  0  0  0  0  0  0  0  0  0  0
  -25.2021   -1.5833  -14.7830 C   0  0  0  0  0  0  0  0  0  0  0  0
  -26.1960   -1.3521  -13.6502 C   0  0  0  0  0  0  0  0  0  0  0  0
  7  8  1  0  0  0
  7 17  1  0  0  0
  7 18  1  0  0  0
  8  9  2  0  0  0
  8 16  1  0  0  0
  9 10  1  0  0  0
 10 11  1  0  0  0
 10 19  1  0  0  0
 11 12  1  0  0  0
 11 16  2  0  0  0
 12 13  2  0  0  0
 13 14  1  0  0  0
 14 15  2  0  0  0
 15  1  1  0  0  0
 15 16  1  0  0  0
  1  2  1  0  0  0
  1  6  2  0  0  0
  2  3  2  0  0  0
  3  4  1  0  0  0
  4 20  1  0  0  0
  4  5  2  0  0  0
 20 21  1  0  0  0
 20 24  1  0  0  0
 21 22  2  0  0  0
 21 23  1  0  0  0
 23 26  1  0  0  0
 23 25  1  0  0  0
 26 27  1  0  0  0
 26 31  1  0  0  0
 27 28  1  0  0  0
 28 29  1  0  0  0
 29 30  1  0  0  0
 30 31  1  0  0  0
  5  6  1  0  0  0
M  END
> <minimizedAffinity>
-8.99233

$$$$
