CHEMBL296475


 23 25  0  0  0  0  0  0  0  0999 V2000
  -29.6996   -5.7633   -6.1787 C   0  0  0  0  0  0  0  0  0  0  0  0
  -29.4772   -6.1769   -4.9225 N   0  0  0  0  0  0  0  0  0  0  0  0
  -29.1840   -7.4698   -4.7275 C   0  0  0  0  0  0  0  0  0  0  0  0
  -29.0800   -8.3759   -5.7449 C   0  0  0  0  0  0  0  0  0  0  0  0
  -29.2664   -7.8624   -7.0099 C   0  0  0  0  0  0  0  0  0  0  0  0
  -29.5848   -6.5717   -7.2350 N   0  0  0  0  0  0  0  0  0  0  0  0
  -29.1288   -8.7088   -8.1417 N   0  0  0  0  0  0  0  0  0  0  0  0
  -27.9773   -8.9407   -8.8652 C   0  0  0  0  0  0  0  0  0  0  0  0
  -28.3283   -9.8202   -9.8607 C   0  0  0  0  0  0  0  0  0  0  0  0
  -29.6526  -10.1328   -9.7804 N   0  0  0  0  0  0  0  0  0  0  0  0
  -30.1305   -9.4531   -8.7463 C   0  0  0  0  0  0  0  0  0  0  0  0
  -31.5041   -9.4692   -8.3612 C   0  0  0  0  0  0  0  0  0  0  0  0
  -32.6229   -9.4672   -8.0263 N   0  0  0  0  0  0  0  0  0  0  0  0
  -30.1491   -4.4664   -6.4117 N   0  0  0  0  0  0  0  0  0  0  0  0
  -31.0824   -4.4681   -6.8038 H   0  0  0  0  0  0  0  0  0  0  0  0
  -28.3403   -0.0755   -5.0855 C   0  0  0  0  0  0  0  0  0  0  0  0
  -28.4549   -1.1716   -6.1030 C   0  0  0  0  0  0  0  0  0  0  0  0
  -27.8113   -1.0841   -7.3437 C   0  0  0  0  0  0  0  0  0  0  0  0
  -27.9331   -2.1155   -8.2795 C   0  0  0  0  0  0  0  0  0  0  0  0
  -27.2644   -2.0446   -9.6181 C   0  0  0  0  0  0  0  0  0  0  0  0
  -28.7036   -3.2381   -7.9586 C   0  0  0  0  0  0  0  0  0  0  0  0
  -29.3678   -3.3455   -6.7313 C   0  0  0  0  0  0  0  0  0  0  0  0
  -29.2313   -2.3036   -5.8091 C   0  0  0  0  0  0  0  0  0  0  0  0
 16 17  1  0  0  0
 17 18  1  0  0  0
 17 23  2  0  0  0
 18 19  2  0  0  0
 19 20  1  0  0  0
 19 21  1  0  0  0
 21 22  2  0  0  0
 22 14  1  0  0  0
 22 23  1  0  0  0
 14  1  1  0  0  0
 14 15  1  0  0  0
  1  2  1  0  0  0
  1  6  2  0  0  0
  2  3  2  0  0  0
  3  4  1  0  0  0
  4  5  2  0  0  0
  5  7  1  0  0  0
  5  6  1  0  0  0
  7  8  1  0  0  0
  7 11  1  0  0  0
  8  9  2  0  0  0
  9 10  1  0  0  0
 10 11  2  0  0  0
 11 12  1  0  0  0
 12 13  3  0  0  0
M  END
> <minimizedAffinity>
-7.53656

$$$$
