CHEMBL3633276


 39 41  0  0  0  0  0  0  0  0999 V2000
  -27.0721   -0.7577  -10.7446 N   0  0  0  0  0  0  0  0  0  0  0  0
  -27.0911   -1.6926   -9.7186 C   0  0  0  0  0  0  0  0  0  0  0  0
  -26.3044   -2.6306   -9.6160 O   0  0  0  0  0  0  0  0  0  0  0  0
  -28.1323   -1.5026   -8.8202 N   0  0  0  0  0  0  0  0  0  0  0  0
  -27.4317    0.1704  -10.5551 H   0  0  0  0  0  0  0  0  0  0  0  0
  -28.9550   -1.0703   -9.2122 H   0  0  0  0  0  0  0  0  0  0  0  0
  -26.7795   -1.5371  -13.0729 C   0  0  0  0  0  0  0  0  0  0  0  0
  -25.9486   -1.6691  -14.2048 C   0  0  0  0  0  0  0  0  0  0  0  0
  -24.6395   -1.1829  -14.2008 C   0  0  0  0  0  0  0  0  0  0  0  0
  -24.1403   -0.5517  -13.0703 C   0  0  0  0  0  0  0  0  0  0  0  0
  -24.9636   -0.4220  -11.9460 C   0  0  0  0  0  0  0  0  0  0  0  0
  -26.2788   -0.8833  -11.9282 C   0  0  0  0  0  0  0  0  0  0  0  0
  -28.4896   -2.7888  -14.1442 C   0  0  0  0  0  0  0  0  0  0  0  0
  -28.0707   -2.0055  -13.0233 O   0  0  0  0  0  0  0  0  0  0  0  0
  -22.7083   -0.1643  -13.0283 C   0  0  0  0  0  0  0  0  0  0  0  0
  -22.0687   -0.0269  -11.9998 O   0  0  0  0  0  0  0  0  0  0  0  0
  -22.3029    0.1671  -14.2755 O   0  0  0  0  0  0  0  0  0  0  0  0
  -21.5304    1.3735  -14.3624 C   0  0  0  0  0  0  0  0  0  0  0  0
  -20.1566    1.0051  -14.9610 C   0  0  0  0  0  0  0  0  0  0  0  0
  -19.0807    1.9784  -14.7300 N   0  0  0  0  0  0  0  0  0  0  0  0
  -17.8782    1.6455  -15.4990 C   0  0  0  0  0  0  0  0  0  0  0  0
  -19.5407    3.3228  -15.0948 C   0  0  0  0  0  0  0  0  0  0  0  0
  -28.2860   -2.3689   -7.6968 C   0  0  0  0  0  0  0  0  0  0  0  0
  -28.7052   -3.6992   -7.9509 C   0  0  0  0  0  0  0  0  0  0  0  0
  -29.0123   -4.6285   -6.9371 C   0  0  0  0  0  0  0  0  0  0  0  0
  -28.8684   -4.1813   -5.6206 C   0  0  0  0  0  0  0  0  0  0  0  0
  -28.4117   -2.8861   -5.3458 C   0  0  0  0  0  0  0  0  0  0  0  0
  -28.0927   -1.9742   -6.3687 C   0  0  0  0  0  0  0  0  0  0  0  0
  -29.4748   -5.9967   -7.2529 C   0  0  0  0  0  0  0  0  0  0  0  0
  -28.7317   -6.9085   -7.9908 C   0  0  0  0  0  0  0  0  0  0  0  0
  -29.1313   -8.1591   -8.3194 N   0  0  0  0  0  0  0  0  0  0  0  0
  -30.3479   -8.5101   -7.8847 C   0  0  0  0  0  0  0  0  0  0  0  0
  -31.1687   -7.7423   -7.1584 N   0  0  0  0  0  0  0  0  0  0  0  0
  -30.7039   -6.5069   -6.8560 C   0  0  0  0  0  0  0  0  0  0  0  0
  -27.7991   -0.7459   -5.8625 O   0  0  0  0  0  0  0  0  0  0  0  0
  -28.7756    0.2582   -5.7077 C   0  0  0  0  0  0  0  0  0  0  0  0
  -30.0303   -0.2128   -5.5586 F   0  0  0  0  0  0  0  0  0  0  0  0
  -28.4714    0.9972   -4.6192 F   0  0  0  0  0  0  0  0  0  0  0  0
  -28.7542    1.0650   -6.7893 F   0  0  0  0  0  0  0  0  0  0  0  0
 13 14  1  0  0  0
 14  7  1  0  0  0
  7  8  1  0  0  0
  7 12  2  0  0  0
  8  9  2  0  0  0
  9 10  1  0  0  0
 10 15  1  0  0  0
 10 11  2  0  0  0
 15 16  2  0  0  0
 15 17  1  0  0  0
 17 18  1  0  0  0
 18 19  1  0  0  0
 19 20  1  0  0  0
 20 21  1  0  0  0
 20 22  1  0  0  0
 11 12  1  0  0  0
 12  1  1  0  0  0
  1  2  1  0  0  0
  1  5  1  0  0  0
  2  3  2  0  0  0
  2  4  1  0  0  0
  4 23  1  0  0  0
  4  6  1  0  0  0
 23 24  1  0  0  0
 23 28  2  0  0  0
 24 25  2  0  0  0
 25 29  1  0  0  0
 25 26  1  0  0  0
 29 30  1  0  0  0
 29 34  2  0  0  0
 30 31  2  0  0  0
 31 32  1  0  0  0
 32 33  2  0  0  0
 33 34  1  0  0  0
 26 27  2  0  0  0
 27 28  1  0  0  0
 28 35  1  0  0  0
 35 36  1  0  0  0
 36 37  1  0  0  0
 36 38  1  0  0  0
 36 39  1  0  0  0
M  END
> <minimizedAffinity>
-9.13510

$$$$
