CHEMBL3219509


 27 29  0  0  0  0  0  0  0  0999 V2000
  -25.4470  -10.2599   -6.0078 C   0  0  0  0  0  0  0  0  0  0  0  0
  -26.3638  -10.3058   -7.0805 C   0  0  0  0  0  0  0  0  0  0  0  0
  -27.6255   -9.7210   -6.9758 C   0  0  0  0  0  0  0  0  0  0  0  0
  -28.4614   -9.7413   -8.0462 N   0  0  0  0  0  0  0  0  0  0  0  0
  -29.6712   -9.1343   -7.9980 C   0  0  0  0  0  0  0  0  0  0  0  0
  -30.0658   -8.4961   -6.8697 N   0  0  0  0  0  0  0  0  0  0  0  0
  -29.2885   -8.4596   -5.7529 C   0  0  0  0  0  0  0  0  0  0  0  0
  -28.0202   -9.0883   -5.7811 C   0  0  0  0  0  0  0  0  0  0  0  0
  -27.1226   -9.0634   -4.6977 C   0  0  0  0  0  0  0  0  0  0  0  0
  -25.8429   -9.6287   -4.7906 C   0  0  0  0  0  0  0  0  0  0  0  0
  -23.0352  -10.0715   -6.3954 C   0  0  0  0  0  0  0  0  0  0  0  0
  -24.1982  -10.7797   -6.1364 O   0  0  0  0  0  0  0  0  0  0  0  0
  -29.7855   -7.8093   -4.5837 N   0  0  0  0  0  0  0  0  0  0  0  0
  -29.9970   -8.3768   -3.7497 H   0  0  0  0  0  0  0  0  0  0  0  0
  -30.0105   -6.4012   -4.4940 C   0  0  0  0  0  0  0  0  0  0  0  0
  -31.1653   -5.8751   -3.8827 C   0  0  0  0  0  0  0  0  0  0  0  0
  -31.3988   -4.5004   -3.8782 C   0  0  0  0  0  0  0  0  0  0  0  0
  -30.4829   -3.6300   -4.4666 C   0  0  0  0  0  0  0  0  0  0  0  0
  -29.3135   -4.1284   -5.0607 C   0  0  0  0  0  0  0  0  0  0  0  0
  -29.0899   -5.5156   -5.0796 C   0  0  0  0  0  0  0  0  0  0  0  0
  -28.2722   -3.1228   -5.6948 B   0  0  0  0  0  0  0  0  0  0  0  0
  -28.3247   -2.7843   -7.1200 O   0  0  0  0  0  0  0  0  0  0  0  0
  -27.1660   -2.6127   -4.8820 O   0  0  0  0  0  0  0  0  0  0  0  0
  -29.2379   -2.4472   -7.2943 H   0  0  0  0  0  0  0  0  0  0  0  0
  -26.5647   -3.3874   -4.7423 H   0  0  0  0  0  0  0  0  0  0  0  0
  -25.0472   -9.4879   -3.6923 O   0  0  0  0  0  0  0  0  0  0  0  0
  -24.5319  -10.4678   -2.8699 C   0  0  0  0  0  0  0  0  0  0  0  0
 11 12  1  0  0  0
 12  1  1  0  0  0
  1  2  1  0  0  0
  1 10  2  0  0  0
  2  3  2  0  0  0
  3  4  1  0  0  0
  3  8  1  0  0  0
  4  5  2  0  0  0
  5  6  1  0  0  0
  6  7  2  0  0  0
  7 13  1  0  0  0
  7  8  1  0  0  0
 13 15  1  0  0  0
 13 14  1  0  0  0
 15 16  1  0  0  0
 15 20  2  0  0  0
 16 17  2  0  0  0
 17 18  1  0  0  0
 18 19  2  0  0  0
 19 21  1  0  0  0
 19 20  1  0  0  0
 21 22  1  0  0  0
 21 23  1  0  0  0
 22 24  1  0  0  0
 23 25  1  0  0  0
  8  9  2  0  0  0
  9 10  1  0  0  0
 10 26  1  0  0  0
 26 27  1  0  0  0
M  END
> <minimizedAffinity>
-6.74635

$$$$
