CHEMBL3942506


 39 42  0  0  0  0  0  0  0  0999 V2000
  -28.5758   -8.0608   -6.1818 C   0  0  0  0  0  0  0  0  0  0  0  0
  -29.2071   -7.5359   -7.2848 C   0  0  0  0  0  0  0  0  0  0  0  0
  -29.2007   -6.2847   -7.6122 C   0  0  0  0  0  0  0  0  0  0  0  0
  -28.7195   -5.3462   -6.8078 C   0  0  0  0  0  0  0  0  0  0  0  0
  -28.6332   -4.2082   -7.4395 N   0  0  0  0  0  0  0  0  0  0  0  0
  -28.3521   -3.0946   -6.8740 C   0  0  0  0  0  0  0  0  0  0  0  0
  -28.3084   -2.9796   -5.4982 C   0  0  0  0  0  0  0  0  0  0  0  0
  -28.1657   -4.2425   -4.7750 N   0  0  0  0  0  0  0  0  0  0  0  0
  -28.3666   -5.5025   -5.4677 C   0  0  0  0  0  0  0  0  0  0  0  0
  -28.2096   -7.0045   -5.1186 C   0  0  0  0  0  0  0  0  0  0  0  0
  -28.4498   -1.3862   -5.2587 C   0  0  0  0  0  0  0  0  0  0  0  0
  -27.7131   -0.2774   -4.8036 C   0  0  0  0  0  0  0  0  0  0  0  0
  -28.4764    0.8822   -4.9475 N   0  0  0  0  0  0  0  0  0  0  0  0
  -29.6657    0.6005   -5.4578 N   0  0  0  0  0  0  0  0  0  0  0  0
  -29.7129   -0.7360   -5.5754 C   0  0  0  0  0  0  0  0  0  0  0  0
  -30.8465    1.5056   -5.7292 C   0  0  0  0  0  0  0  0  0  0  0  0
  -30.9032    2.1190   -7.1604 C   0  0  0  0  0  0  0  0  0  0  0  0
  -32.3553    2.3518   -7.6967 C   0  0  0  0  0  0  0  0  0  0  0  0
  -32.3854    3.4396   -8.6817 N   0  0  0  0  0  0  0  0  0  0  0  0
  -32.0889    4.3332   -8.2264 H   0  0  0  0  0  0  0  0  0  0  0  0
  -33.3688    3.5865   -9.0185 H   0  0  0  0  0  0  0  0  0  0  0  0
  -28.4137   -9.5473   -6.4207 N   0  0  0  0  0  0  0  0  0  0  0  0
  -27.2017  -10.3484   -6.2302 C   0  0  0  0  0  0  0  0  0  0  0  0
  -26.8707  -10.9205   -4.9445 C   0  0  0  0  0  0  0  0  0  0  0  0
  -25.6780  -11.6152   -4.7009 C   0  0  0  0  0  0  0  0  0  0  0  0
  -24.7957  -11.8153   -5.7624 C   0  0  0  0  0  0  0  0  0  0  0  0
  -25.1028  -11.3189   -7.0388 C   0  0  0  0  0  0  0  0  0  0  0  0
  -26.2873  -10.5606   -7.2518 C   0  0  0  0  0  0  0  0  0  0  0  0
  -25.4350  -12.0642   -3.4327 O   0  0  0  0  0  0  0  0  0  0  0  0
  -24.2636  -11.9196   -2.7111 C   0  0  0  0  0  0  0  0  0  0  0  0
  -24.2633  -11.6191   -8.0540 O   0  0  0  0  0  0  0  0  0  0  0  0
  -22.9337  -11.9263   -7.8691 C   0  0  0  0  0  0  0  0  0  0  0  0
  -29.7033  -10.3695   -6.4201 C   0  0  0  0  0  0  0  0  0  0  0  0
  -30.1036  -11.0967   -7.7224 C   0  0  0  0  0  0  0  0  0  0  0  0
  -29.3498  -10.5796   -8.7928 O   0  0  0  0  0  0  0  0  0  0  0  0
  -29.5085   -9.5950   -8.8295 H   0  0  0  0  0  0  0  0  0  0  0  0
  -31.6314  -10.8941   -8.0157 C   0  0  0  0  0  0  0  0  0  0  0  0
  -32.8289   -9.0063   -7.3784 C   0  0  0  0  0  0  0  0  0  0  0  0
  -31.8944   -9.5330   -8.3038 O   0  0  0  0  0  0  0  0  0  0  0  0
 38 39  1  0  0  0
 39 37  1  0  0  0
 37 34  1  0  0  0
 34 35  1  0  0  0
 34 33  1  0  0  0
 35 36  1  0  0  0
 33 22  1  0  0  0
 22 23  1  0  0  0
 22  1  1  0  0  0
 23 24  1  0  0  0
 23 28  2  0  0  0
 24 25  2  0  0  0
 25 29  1  0  0  0
 25 26  1  0  0  0
 29 30  1  0  0  0
 26 27  2  0  0  0
 27 31  1  0  0  0
 27 28  1  0  0  0
 31 32  1  0  0  0
  1  2  1  0  0  0
  1 10  2  0  0  0
  2  3  2  0  0  0
  3  4  1  0  0  0
  4  5  1  0  0  0
  4  9  2  0  0  0
  5  6  2  0  0  0
  6  7  1  0  0  0
  7 11  1  0  0  0
  7  8  2  0  0  0
 11 12  1  0  0  0
 11 15  2  0  0  0
 12 13  2  0  0  0
 13 14  1  0  0  0
 14 16  1  0  0  0
 14 15  1  0  0  0
 16 17  1  0  0  0
 17 18  1  0  0  0
 18 19  1  0  0  0
 19 20  1  0  0  0
 19 21  1  0  0  0
  8  9  1  0  0  0
  9 10  1  0  0  0
M  END
> <minimizedAffinity>
-7.35953

$$$$
