CHEMBL3660282


 40 43  0  0  0  0  0  0  0  0999 V2000
  -18.3279    3.0114  -15.3781 C   0  0  0  0  0  0  0  0  0  0  0  0
  -17.9247    1.6837  -15.2785 C   0  0  0  0  0  0  0  0  0  0  0  0
  -18.8657    0.6653  -15.1180 C   0  0  0  0  0  0  0  0  0  0  0  0
  -20.2263    0.9369  -14.9776 C   0  0  0  0  0  0  0  0  0  0  0  0
  -20.6268    2.2810  -14.9832 C   0  0  0  0  0  0  0  0  0  0  0  0
  -19.6813    3.3114  -15.1855 C   0  0  0  0  0  0  0  0  0  0  0  0
  -21.2028   -0.0921  -14.8422 N   0  0  0  0  0  0  0  0  0  0  0  0
  -22.3159   -0.0392  -14.0244 C   0  0  0  0  0  0  0  0  0  0  0  0
  -22.6485    0.9225  -13.3342 O   0  0  0  0  0  0  0  0  0  0  0  0
  -23.0523   -1.2179  -14.0127 N   0  0  0  0  0  0  0  0  0  0  0  0
  -21.0985   -0.9036  -15.4381 H   0  0  0  0  0  0  0  0  0  0  0  0
  -22.4893   -2.0556  -14.0971 H   0  0  0  0  0  0  0  0  0  0  0  0
  -24.2066   -1.3163  -13.1924 C   0  0  0  0  0  0  0  0  0  0  0  0
  -24.0875   -1.0783  -11.8276 C   0  0  0  0  0  0  0  0  0  0  0  0
  -25.2197   -1.1397  -11.0106 C   0  0  0  0  0  0  0  0  0  0  0  0
  -26.4773   -1.4654  -11.5395 C   0  0  0  0  0  0  0  0  0  0  0  0
  -27.7746   -1.5724  -10.4065 Cl  0  0  0  0  0  0  0  0  0  0  0  0
  -26.6272   -1.6945  -12.9102 C   0  0  0  0  0  0  0  0  0  0  0  0
  -25.4691   -1.6184  -13.7245 C   0  0  0  0  0  0  0  0  0  0  0  0
  -27.9428   -1.9992  -13.5829 C   0  0  0  0  0  0  0  0  0  0  0  0
  -28.3179   -3.3047  -13.6163 F   0  0  0  0  0  0  0  0  0  0  0  0
  -28.9837   -1.3444  -12.9931 F   0  0  0  0  0  0  0  0  0  0  0  0
  -27.9518   -1.5934  -14.8865 F   0  0  0  0  0  0  0  0  0  0  0  0
  -17.4594    4.0577  -15.6174 O   0  0  0  0  0  0  0  0  0  0  0  0
  -14.0191    2.7621  -16.0039 C   0  0  0  0  0  0  0  0  0  0  0  0
  -15.2939    2.9216  -15.4718 C   0  0  0  0  0  0  0  0  0  0  0  0
  -16.1830    3.7970  -16.0855 C   0  0  0  0  0  0  0  0  0  0  0  0
  -15.7970    4.4125  -17.2699 C   0  0  0  0  0  0  0  0  0  0  0  0
  -14.5141    4.1721  -17.7486 C   0  0  0  0  0  0  0  0  0  0  0  0
  -13.6073    3.3724  -17.1356 N   0  0  0  0  0  0  0  0  0  0  0  0
  -11.9430    0.3040  -14.1398 C   0  0  0  0  0  0  0  0  0  0  0  0
  -11.0428    1.2995  -14.4692 C   0  0  0  0  0  0  0  0  0  0  0  0
  -11.7035    2.2634  -15.1958 N   0  0  0  0  0  0  0  0  0  0  0  0
  -13.0323    1.9263  -15.3285 C   0  0  0  0  0  0  0  0  0  0  0  0
  -13.1862    0.7069  -14.6951 C   0  0  0  0  0  0  0  0  0  0  0  0
  -11.3012    3.1100  -15.5789 H   0  0  0  0  0  0  0  0  0  0  0  0
  -11.7312   -0.9233  -13.3787 C   0  0  0  0  0  0  0  0  0  0  0  0
  -11.3157   -0.9201  -12.2267 O   0  0  0  0  0  0  0  0  0  0  0  0
  -12.9155   -2.9266  -13.3873 C   0  0  0  0  0  0  0  0  0  0  0  0
  -12.0329   -2.0497  -14.0859 O   0  0  0  0  0  0  0  0  0  0  0  0
 39 40  1  0  0  0
 40 37  1  0  0  0
 37 38  2  0  0  0
 37 31  1  0  0  0
 31 32  2  0  0  0
 31 35  1  0  0  0
 32 33  1  0  0  0
 33 34  1  0  0  0
 33 36  1  0  0  0
 34 25  1  0  0  0
 34 35  2  0  0  0
 25 26  1  0  0  0
 25 30  2  0  0  0
 26 27  2  0  0  0
 27 24  1  0  0  0
 27 28  1  0  0  0
 24  1  1  0  0  0
  1  2  1  0  0  0
  1  6  2  0  0  0
  2  3  2  0  0  0
  3  4  1  0  0  0
  4  7  1  0  0  0
  4  5  2  0  0  0
  7  8  1  0  0  0
  7 11  1  0  0  0
  8  9  2  0  0  0
  8 10  1  0  0  0
 10 13  1  0  0  0
 10 12  1  0  0  0
 13 14  1  0  0  0
 13 19  2  0  0  0
 14 15  2  0  0  0
 15 16  1  0  0  0
 16 17  1  0  0  0
 16 18  2  0  0  0
 18 20  1  0  0  0
 18 19  1  0  0  0
 20 21  1  0  0  0
 20 22  1  0  0  0
 20 23  1  0  0  0
  5  6  1  0  0  0
 28 29  2  0  0  0
 29 30  1  0  0  0
M  END
> <minimizedAffinity>
-9.60452

$$$$
