CHEMBL2071202


 29 32  0  0  0  0  0  0  0  0999 V2000
  -28.8941   -6.9165   -5.9291 C   0  0  0  0  0  0  0  0  0  0  0  0
  -29.3774   -7.3997   -4.7787 N   0  0  0  0  0  0  0  0  0  0  0  0
  -30.0958   -6.5444   -4.0187 C   0  0  0  0  0  0  0  0  0  0  0  0
  -30.4045   -5.2555   -4.3947 C   0  0  0  0  0  0  0  0  0  0  0  0
  -31.4707   -4.2959   -3.4498 Cl  0  0  0  0  0  0  0  0  0  0  0  0
  -29.8996   -4.8450   -5.6197 C   0  0  0  0  0  0  0  0  0  0  0  0
  -29.1096   -5.6581   -6.3415 N   0  0  0  0  0  0  0  0  0  0  0  0
  -28.2421   -7.8169   -6.7765 N   0  0  0  0  0  0  0  0  0  0  0  0
  -27.3357   -8.0350   -6.3848 H   0  0  0  0  0  0  0  0  0  0  0  0
  -28.8550  -10.3252  -10.9022 C   0  0  0  0  0  0  0  0  0  0  0  0
  -29.0546   -9.6340   -9.6527 N   0  0  0  0  0  0  0  0  0  0  0  0
  -28.1096   -8.9928   -8.9003 C   0  0  0  0  0  0  0  0  0  0  0  0
  -28.7726   -8.5218   -7.7949 C   0  0  0  0  0  0  0  0  0  0  0  0
  -30.1143   -8.9097   -7.9832 C   0  0  0  0  0  0  0  0  0  0  0  0
  -30.2914   -9.5826   -9.1242 N   0  0  0  0  0  0  0  0  0  0  0  0
  -30.2093   -3.5496   -6.1588 N   0  0  0  0  0  0  0  0  0  0  0  0
  -30.1910   -3.6658   -7.1783 H   0  0  0  0  0  0  0  0  0  0  0  0
  -29.1444   -2.5945   -5.7734 C   0  0  0  0  0  0  0  0  0  0  0  0
  -27.9638   -2.4041   -6.7633 C   0  0  0  0  0  0  0  0  0  0  0  0
  -27.5762   -0.9200   -6.4721 C   0  0  0  0  0  0  0  0  0  0  0  0
  -27.3629   -0.6706   -4.9795 C   0  0  0  0  0  0  0  0  0  0  0  0
  -28.5700   -0.7136   -4.3857 C   0  0  0  0  0  0  0  0  0  0  0  0
  -29.5557   -1.1168   -5.4612 C   0  0  0  0  0  0  0  0  0  0  0  0
  -28.9560   -0.2672   -6.5884 C   0  0  0  0  0  0  0  0  0  0  0  0
  -28.2223   -2.5409   -8.2645 C   0  0  0  0  0  0  0  0  0  0  0  0
  -27.4110   -1.8674   -9.1227 N   0  0  0  0  0  0  0  0  0  0  0  0
  -29.1220   -3.2509   -8.7073 O   0  0  0  0  0  0  0  0  0  0  0  0
  -26.5940   -1.3546   -8.7943 H   0  0  0  0  0  0  0  0  0  0  0  0
  -27.5136   -2.0313  -10.1154 H   0  0  0  0  0  0  0  0  0  0  0  0
 10 11  1  0  0  0
 11 12  1  0  0  0
 11 15  1  0  0  0
 12 13  2  0  0  0
 13  8  1  0  0  0
 13 14  1  0  0  0
  8  1  1  0  0  0
  8  9  1  0  0  0
  1  2  1  0  0  0
  1  7  2  0  0  0
  2  3  2  0  0  0
  3  4  1  0  0  0
  4  5  1  0  0  0
  4  6  2  0  0  0
  6 16  1  0  0  0
  6  7  1  0  0  0
 16 17  1  0  0  0
 18 19  1  0  0  0
 18 23  1  0  0  0
 18 16  1  0  0  0
 19 25  1  0  0  0
 19 20  1  0  0  0
 25 26  1  0  0  0
 25 27  2  0  0  0
 26 28  1  0  0  0
 26 29  1  0  0  0
 20 21  1  0  0  0
 20 24  1  0  0  0
 21 22  2  0  0  0
 22 23  1  0  0  0
 23 24  1  0  0  0
 14 15  2  0  0  0
M  END
> <minimizedAffinity>
-7.76372

$$$$
