CHEMBL1983630


 17 19  0  0  0  0  0  0  0  0999 V2000
  -16.9786    3.7737  -15.9252 O   0  0  0  0  0  0  0  0  0  0  0  0
  -18.0219    3.2826  -15.5265 C   0  0  0  0  0  0  0  0  0  0  0  0
  -18.3032    1.7913  -15.3190 C   0  0  0  0  0  0  0  0  0  0  0  0
  -19.7117    1.8132  -14.8218 C   0  0  0  0  0  0  0  0  0  0  0  0
  -20.5492    0.7820  -14.4423 C   0  0  0  0  0  0  0  0  0  0  0  0
  -21.8398    1.0959  -13.9793 C   0  0  0  0  0  0  0  0  0  0  0  0
  -22.1768    2.4667  -13.9612 C   0  0  0  0  0  0  0  0  0  0  0  0
  -21.3712    3.4952  -14.3458 N   0  0  0  0  0  0  0  0  0  0  0  0
  -20.1640    3.1187  -14.7568 C   0  0  0  0  0  0  0  0  0  0  0  0
  -19.1676    3.9753  -15.1757 N   0  0  0  0  0  0  0  0  0  0  0  0
  -19.2723    4.9758  -15.2074 H   0  0  0  0  0  0  0  0  0  0  0  0
  -22.7806    0.0476  -13.5234 C   0  0  0  0  0  0  0  0  0  0  0  0
  -22.6654   -0.5319  -12.2448 C   0  0  0  0  0  0  0  0  0  0  0  0
  -23.5482   -1.5235  -11.8066 C   0  0  0  0  0  0  0  0  0  0  0  0
  -24.5784   -1.9540  -12.6348 C   0  0  0  0  0  0  0  0  0  0  0  0
  -24.7215   -1.3971  -13.9009 C   0  0  0  0  0  0  0  0  0  0  0  0
  -23.8303   -0.4125  -14.3408 C   0  0  0  0  0  0  0  0  0  0  0  0
  1  2  2  0  0  0
  2  3  1  0  0  0
  2 10  1  0  0  0
  3  4  1  0  0  0
  4  5  1  0  0  0
  4  9  2  0  0  0
  5  6  2  0  0  0
  6 12  1  0  0  0
  6  7  1  0  0  0
 12 13  1  0  0  0
 12 17  2  0  0  0
 13 14  2  0  0  0
 14 15  1  0  0  0
 15 16  2  0  0  0
 16 17  1  0  0  0
  7  8  2  0  0  0
  8  9  1  0  0  0
  9 10  1  0  0  0
 10 11  1  0  0  0
M  END
> <minimizedAffinity>
-9.60513

$$$$
