CHEMBL3920007


 37 41  0  0  0  0  0  0  0  0999 V2000
  -27.8259   -9.4719   -4.2314 N   0  0  0  0  0  0  0  0  0  0  0  0
  -28.2579   -8.0912   -4.1682 C   0  0  0  0  0  0  0  0  0  0  0  0
  -29.3196   -7.8603   -3.2908 C   0  0  0  0  0  0  0  0  0  0  0  0
  -30.1390   -6.7647   -3.4668 C   0  0  0  0  0  0  0  0  0  0  0  0
  -29.8515   -5.7878   -4.3846 C   0  0  0  0  0  0  0  0  0  0  0  0
  -30.8391   -4.9005   -4.5585 N   0  0  0  0  0  0  0  0  0  0  0  0
  -30.5703   -3.8411   -5.3136 C   0  0  0  0  0  0  0  0  0  0  0  0
  -29.3111   -3.5902   -5.8075 C   0  0  0  0  0  0  0  0  0  0  0  0
  -28.3179   -4.5439   -5.7404 N   0  0  0  0  0  0  0  0  0  0  0  0
  -28.6125   -5.7423   -5.0627 C   0  0  0  0  0  0  0  0  0  0  0  0
  -27.8509   -6.9787   -4.9778 C   0  0  0  0  0  0  0  0  0  0  0  0
  -29.0743   -2.2028   -6.2320 C   0  0  0  0  0  0  0  0  0  0  0  0
  -27.9477   -1.6544   -6.9093 C   0  0  0  0  0  0  0  0  0  0  0  0
  -27.9040   -0.3153   -6.8604 N   0  0  0  0  0  0  0  0  0  0  0  0
  -28.9911    0.0075   -6.1407 N   0  0  0  0  0  0  0  0  0  0  0  0
  -29.4288    1.3814   -6.0488 C   0  0  0  0  0  0  0  0  0  0  0  0
  -29.6296   -1.0860   -5.6194 C   0  0  0  0  0  0  0  0  0  0  0  0
  -24.1227  -10.0958   -4.7666 C   0  0  0  0  0  0  0  0  0  0  0  0
  -23.8409  -10.9764   -3.7308 C   0  0  0  0  0  0  0  0  0  0  0  0
  -24.8828  -11.4547   -2.9330 C   0  0  0  0  0  0  0  0  0  0  0  0
  -26.1941  -10.9984   -3.1444 C   0  0  0  0  0  0  0  0  0  0  0  0
  -26.5091  -10.0213   -4.1013 C   0  0  0  0  0  0  0  0  0  0  0  0
  -25.4457   -9.6594   -4.9654 C   0  0  0  0  0  0  0  0  0  0  0  0
  -22.5465  -10.5374   -6.4972 C   0  0  0  0  0  0  0  0  0  0  0  0
  -23.1898   -9.5934   -5.6410 O   0  0  0  0  0  0  0  0  0  0  0  0
  -24.7248  -12.3506   -1.9067 O   0  0  0  0  0  0  0  0  0  0  0  0
  -23.4452  -12.3985   -1.2797 C   0  0  0  0  0  0  0  0  0  0  0  0
  -28.7896  -10.2465   -5.1428 C   0  0  0  0  0  0  0  0  0  0  0  0
  -28.1941  -10.9117   -6.4553 C   0  0  0  0  0  0  0  0  0  0  0  0
  -27.9273   -9.9584   -7.5810 N   0  0  0  0  0  0  0  0  0  0  0  0
  -29.1140   -9.2130   -8.0742 C   0  0  0  0  0  0  0  0  0  0  0  0
  -28.7227   -7.7568   -8.3829 C   0  0  0  0  0  0  0  0  0  0  0  0
  -29.8295   -9.8397   -9.2888 C   0  0  0  0  0  0  0  0  0  0  0  0
  -28.8776  -10.1714  -10.4232 C   0  0  0  0  0  0  0  0  0  0  0  0
  -27.7868  -11.0754   -9.8812 C   0  0  0  0  0  0  0  0  0  0  0  0
  -27.0504  -10.4168   -8.6963 C   0  0  0  0  0  0  0  0  0  0  0  0
  -25.8664  -11.3075   -8.3092 C   0  0  0  0  0  0  0  0  0  0  0  0
 24 25  1  0  0  0
 25 18  1  0  0  0
 18 19  1  0  0  0
 18 23  2  0  0  0
 19 20  2  0  0  0
 20 26  1  0  0  0
 20 21  1  0  0  0
 26 27  1  0  0  0
 21 22  2  0  0  0
 22  1  1  0  0  0
 22 23  1  0  0  0
  1 28  1  0  0  0
  1  2  1  0  0  0
 28 29  1  0  0  0
 29 30  1  0  0  0
 30 31  1  0  0  0
 30 36  1  0  0  0
 31 32  1  0  0  0
 31 33  1  0  0  0
 33 34  1  0  0  0
 34 35  1  0  0  0
 35 36  1  0  0  0
 36 37  1  0  0  0
  2  3  1  0  0  0
  2 11  2  0  0  0
  3  4  2  0  0  0
  4  5  1  0  0  0
  5  6  1  0  0  0
  5 10  2  0  0  0
  6  7  2  0  0  0
  7  8  1  0  0  0
  8 12  1  0  0  0
  8  9  2  0  0  0
 12 13  1  0  0  0
 12 17  2  0  0  0
 13 14  2  0  0  0
 14 15  1  0  0  0
 15 16  1  0  0  0
 15 17  1  0  0  0
  9 10  1  0  0  0
 10 11  1  0  0  0
M  END
> <minimizedAffinity>
-8.35005

$$$$
