CHEMBL494272


 30 34  0  0  0  0  0  0  0  0999 V2000
  -30.0189   -6.1922   -6.8469 C   0  0  0  0  0  0  0  0  0  0  0  0
  -28.9209   -6.9005   -7.3501 C   0  0  0  0  0  0  0  0  0  0  0  0
  -29.0597   -8.1715   -7.9085 C   0  0  0  0  0  0  0  0  0  0  0  0
  -30.3072   -8.8212   -8.0074 C   0  0  0  0  0  0  0  0  0  0  0  0
  -30.5173  -10.0973   -8.5923 C   0  0  0  0  0  0  0  0  0  0  0  0
  -31.7389  -10.6753   -8.4865 N   0  0  0  0  0  0  0  0  0  0  0  0
  -32.7934  -10.0509   -7.8746 N   0  0  0  0  0  0  0  0  0  0  0  0
  -32.6190   -8.8141   -7.3842 C   0  0  0  0  0  0  0  0  0  0  0  0
  -31.4034   -8.1506   -7.4322 C   0  0  0  0  0  0  0  0  0  0  0  0
  -31.2584   -6.8453   -6.9045 C   0  0  0  0  0  0  0  0  0  0  0  0
  -30.9102   -5.2753   -4.0199 C   0  0  0  0  0  0  0  0  0  0  0  0
  -30.2362   -4.3795   -5.0283 C   0  0  0  0  0  0  0  0  0  0  0  0
  -29.9878   -3.0466   -4.6325 C   0  0  0  0  0  0  0  0  0  0  0  0
  -29.3017   -2.1540   -5.4567 C   0  0  0  0  0  0  0  0  0  0  0  0
  -28.8726   -2.5750   -6.7102 C   0  0  0  0  0  0  0  0  0  0  0  0
  -29.1502   -3.8803   -7.1273 C   0  0  0  0  0  0  0  0  0  0  0  0
  -29.8304   -4.8179   -6.3126 C   0  0  0  0  0  0  0  0  0  0  0  0
  -28.0785   -1.7082   -7.6241 C   0  0  0  0  0  0  0  0  0  0  0  0
  -27.6347   -0.6382   -7.2147 O   0  0  0  0  0  0  0  0  0  0  0  0
  -27.8585   -2.1978   -8.8948 N   0  0  0  0  0  0  0  0  0  0  0  0
  -28.1082   -3.1535   -9.1026 H   0  0  0  0  0  0  0  0  0  0  0  0
  -27.0615   -1.4903   -9.8406 C   0  0  0  0  0  0  0  0  0  0  0  0
  -27.5844   -1.2340  -11.2306 C   0  0  0  0  0  0  0  0  0  0  0  0
  -26.4626   -2.2021  -11.0229 C   0  0  0  0  0  0  0  0  0  0  0  0
  -29.5406  -10.7939   -9.2781 N   0  0  0  0  0  0  0  0  0  0  0  0
  -28.7005  -11.8435   -8.6943 C   0  0  0  0  0  0  0  0  0  0  0  0
  -27.2111  -11.6097   -8.9832 C   0  0  0  0  0  0  0  0  0  0  0  0
  -26.9629  -11.3544  -10.3710 O   0  0  0  0  0  0  0  0  0  0  0  0
  -27.6895  -10.1866  -10.7889 C   0  0  0  0  0  0  0  0  0  0  0  0
  -29.2018  -10.3958  -10.6478 C   0  0  0  0  0  0  0  0  0  0  0  0
 11 12  1  0  0  0
 12 13  1  0  0  0
 12 17  2  0  0  0
 13 14  2  0  0  0
 14 15  1  0  0  0
 15 18  1  0  0  0
 15 16  2  0  0  0
 18 19  2  0  0  0
 18 20  1  0  0  0
 20 22  1  0  0  0
 20 21  1  0  0  0
 22 23  1  0  0  0
 22 24  1  0  0  0
 23 24  1  0  0  0
 16 17  1  0  0  0
 17  1  1  0  0  0
  1  2  1  0  0  0
  1 10  2  0  0  0
  2  3  2  0  0  0
  3  4  1  0  0  0
  4  5  1  0  0  0
  4  9  2  0  0  0
  5 25  1  0  0  0
  5  6  2  0  0  0
 25 26  1  0  0  0
 25 30  1  0  0  0
 26 27  1  0  0  0
 27 28  1  0  0  0
 28 29  1  0  0  0
 29 30  1  0  0  0
  6  7  1  0  0  0
  7  8  2  0  0  0
  8  9  1  0  0  0
  9 10  1  0  0  0
M  END
> <minimizedAffinity>
-9.73700

$$$$
