CHEMBL231511


 37 41  0  0  0  0  0  0  0  0999 V2000
  -12.9579    4.0815  -18.8587 C   0  0  0  0  0  0  0  0  0  0  0  0
  -13.6528    2.9463  -19.2804 C   0  0  0  0  0  0  0  0  0  0  0  0
  -13.8971    1.8966  -18.3938 C   0  0  0  0  0  0  0  0  0  0  0  0
  -13.4132    1.9400  -17.0776 C   0  0  0  0  0  0  0  0  0  0  0  0
  -12.6090    3.0260  -16.7099 C   0  0  0  0  0  0  0  0  0  0  0  0
  -12.3950    4.1011  -17.5853 C   0  0  0  0  0  0  0  0  0  0  0  0
  -13.7438    0.8630  -16.1296 C   0  0  0  0  0  0  0  0  0  0  0  0
  -12.9250   -0.2467  -16.0918 C   0  0  0  0  0  0  0  0  0  0  0  0
  -13.3802   -1.3737  -14.9255 S   0  0  0  0  0  0  0  0  0  0  0  0
  -14.8089   -0.4953  -14.4873 C   0  0  0  0  0  0  0  0  0  0  0  0
  -15.8020   -0.8978  -13.5516 C   0  0  0  0  0  0  0  0  0  0  0  0
  -16.7820    0.0657  -13.3380 C   0  0  0  0  0  0  0  0  0  0  0  0
  -16.8644    1.2599  -13.9476 N   0  0  0  0  0  0  0  0  0  0  0  0
  -15.9545    1.6009  -14.8766 C   0  0  0  0  0  0  0  0  0  0  0  0
  -16.2202    2.8220  -15.4854 N   0  0  0  0  0  0  0  0  0  0  0  0
  -14.8638    0.7371  -15.1800 C   0  0  0  0  0  0  0  0  0  0  0  0
  -17.1547    3.1142  -15.2165 H   0  0  0  0  0  0  0  0  0  0  0  0
  -16.0543    2.8106  -16.4842 H   0  0  0  0  0  0  0  0  0  0  0  0
  -15.8413   -2.2051  -12.8553 C   0  0  0  0  0  0  0  0  0  0  0  0
  -15.6335   -2.2963  -11.4646 C   0  0  0  0  0  0  0  0  0  0  0  0
  -15.7156   -3.5191  -10.7873 C   0  0  0  0  0  0  0  0  0  0  0  0
  -15.9809   -4.6897  -11.4888 C   0  0  0  0  0  0  0  0  0  0  0  0
  -16.1872   -4.6336  -12.8615 C   0  0  0  0  0  0  0  0  0  0  0  0
  -16.1439   -3.4040  -13.5270 C   0  0  0  0  0  0  0  0  0  0  0  0
  -13.6362    7.2885  -20.4078 N   0  0  0  0  0  0  0  0  0  0  0  0
  -13.8555    6.2233  -19.5545 C   0  0  0  0  0  0  0  0  0  0  0  0
  -14.7749    6.1445  -18.7473 O   0  0  0  0  0  0  0  0  0  0  0  0
  -12.8800    5.2365  -19.6761 N   0  0  0  0  0  0  0  0  0  0  0  0
  -12.9748    7.1496  -21.1531 H   0  0  0  0  0  0  0  0  0  0  0  0
  -11.9541    5.5847  -19.8747 H   0  0  0  0  0  0  0  0  0  0  0  0
  -17.9244    9.5591  -21.4002 C   0  0  0  0  0  0  0  0  0  0  0  0
  -16.5060    9.6084  -20.9183 C   0  0  0  0  0  0  0  0  0  0  0  0
  -15.9562   10.8289  -20.4991 C   0  0  0  0  0  0  0  0  0  0  0  0
  -14.6472   10.8835  -20.0577 C   0  0  0  0  0  0  0  0  0  0  0  0
  -13.8668    9.7277  -20.0282 C   0  0  0  0  0  0  0  0  0  0  0  0
  -14.3867    8.4877  -20.4247 C   0  0  0  0  0  0  0  0  0  0  0  0
  -15.7175    8.4454  -20.8752 C   0  0  0  0  0  0  0  0  0  0  0  0
 31 32  1  0  0  0
 32 33  1  0  0  0
 32 37  2  0  0  0
 33 34  2  0  0  0
 34 35  1  0  0  0
 35 36  2  0  0  0
 36 25  1  0  0  0
 36 37  1  0  0  0
 25 26  1  0  0  0
 25 29  1  0  0  0
 26 27  2  0  0  0
 26 28  1  0  0  0
 28  1  1  0  0  0
 28 30  1  0  0  0
  1  2  1  0  0  0
  1  6  2  0  0  0
  2  3  2  0  0  0
  3  4  1  0  0  0
  4  7  1  0  0  0
  4  5  2  0  0  0
  7  8  2  0  0  0
  7 16  1  0  0  0
  8  9  1  0  0  0
  9 10  1  0  0  0
 10 11  1  0  0  0
 10 16  2  0  0  0
 11 19  1  0  0  0
 11 12  2  0  0  0
 19 20  1  0  0  0
 19 24  2  0  0  0
 20 21  2  0  0  0
 21 22  1  0  0  0
 22 23  2  0  0  0
 23 24  1  0  0  0
 12 13  1  0  0  0
 13 14  2  0  0  0
 14 15  1  0  0  0
 14 16  1  0  0  0
 15 17  1  0  0  0
 15 18  1  0  0  0
  5  6  1  0  0  0
M  END
> <minimizedAffinity>
-7.34141

$$$$
