CHEMBL220049


 32 35  0  0  0  0  0  0  0  0999 V2000
  -22.7703   -0.5046  -13.5926 C   0  0  0  0  0  0  0  0  0  0  0  0
  -22.6649   -0.9807  -12.2872 C   0  0  0  0  0  0  0  0  0  0  0  0
  -23.7571   -1.5285  -11.6079 C   0  0  0  0  0  0  0  0  0  0  0  0
  -24.9859   -1.7088  -12.2457 C   0  0  0  0  0  0  0  0  0  0  0  0
  -25.0872   -1.3433  -13.5870 C   0  0  0  0  0  0  0  0  0  0  0  0
  -24.0034   -0.7323  -14.2444 C   0  0  0  0  0  0  0  0  0  0  0  0
  -23.3984    2.8171  -13.2591 N   0  0  0  0  0  0  0  0  0  0  0  0
  -22.2313    2.7665  -13.9145 C   0  0  0  0  0  0  0  0  0  0  0  0
  -21.6077    3.8949  -14.2395 N   0  0  0  0  0  0  0  0  0  0  0  0
  -20.5074    3.4810  -14.8682 N   0  0  0  0  0  0  0  0  0  0  0  0
  -20.3866    2.1229  -14.9642 C   0  0  0  0  0  0  0  0  0  0  0  0
  -19.3744    1.3551  -15.5457 C   0  0  0  0  0  0  0  0  0  0  0  0
  -19.5031   -0.0263  -15.4734 C   0  0  0  0  0  0  0  0  0  0  0  0
  -20.6025   -0.6052  -14.8406 C   0  0  0  0  0  0  0  0  0  0  0  0
  -21.6386    0.1650  -14.2540 C   0  0  0  0  0  0  0  0  0  0  0  0
  -21.5128    1.5900  -14.3278 C   0  0  0  0  0  0  0  0  0  0  0  0
  -23.8156    3.7341  -13.1481 H   0  0  0  0  0  0  0  0  0  0  0  0
  -24.0741    2.0663  -13.3260 H   0  0  0  0  0  0  0  0  0  0  0  0
  -19.8651    4.1832  -15.2153 H   0  0  0  0  0  0  0  0  0  0  0  0
  -26.1062   -2.2791  -11.5971 N   0  0  0  0  0  0  0  0  0  0  0  0
  -26.5190   -1.9572  -10.3159 C   0  0  0  0  0  0  0  0  0  0  0  0
  -26.0741   -1.0267   -9.6527 O   0  0  0  0  0  0  0  0  0  0  0  0
  -27.4750   -2.8453   -9.8344 N   0  0  0  0  0  0  0  0  0  0  0  0
  -26.7591   -2.8020  -12.1624 H   0  0  0  0  0  0  0  0  0  0  0  0
  -27.3683   -3.7891  -10.1783 H   0  0  0  0  0  0  0  0  0  0  0  0
  -27.9393   -2.7084   -8.5032 C   0  0  0  0  0  0  0  0  0  0  0  0
  -28.5979   -3.7625   -7.8525 C   0  0  0  0  0  0  0  0  0  0  0  0
  -29.1876   -3.5641   -6.6052 C   0  0  0  0  0  0  0  0  0  0  0  0
  -29.1130   -2.3129   -6.0116 C   0  0  0  0  0  0  0  0  0  0  0  0
  -29.7289   -2.0999   -4.8431 F   0  0  0  0  0  0  0  0  0  0  0  0
  -28.4238   -1.2698   -6.6255 C   0  0  0  0  0  0  0  0  0  0  0  0
  -27.8107   -1.4720   -7.8651 C   0  0  0  0  0  0  0  0  0  0  0  0
  7  8  1  0  0  0
  7 17  1  0  0  0
  7 18  1  0  0  0
  8  9  2  0  0  0
  8 16  1  0  0  0
  9 10  1  0  0  0
 10 11  1  0  0  0
 10 19  1  0  0  0
 11 12  1  0  0  0
 11 16  2  0  0  0
 12 13  2  0  0  0
 13 14  1  0  0  0
 14 15  2  0  0  0
 15  1  1  0  0  0
 15 16  1  0  0  0
  1  2  1  0  0  0
  1  6  2  0  0  0
  2  3  2  0  0  0
  3  4  1  0  0  0
  4 20  1  0  0  0
  4  5  2  0  0  0
 20 21  1  0  0  0
 20 24  1  0  0  0
 21 22  2  0  0  0
 21 23  1  0  0  0
 23 26  1  0  0  0
 23 25  1  0  0  0
 26 27  1  0  0  0
 26 32  2  0  0  0
 27 28  2  0  0  0
 28 29  1  0  0  0
 29 30  1  0  0  0
 29 31  2  0  0  0
 31 32  1  0  0  0
  5  6  1  0  0  0
M  END
> <minimizedAffinity>
-10.15255

$$$$
