CHEMBL47852


 29 32  0  0  0  0  0  0  0  0999 V2000
  -15.0938   -0.3927  -13.4721 C   0  0  0  0  0  0  0  0  0  0  0  0
  -14.1956   -1.1222  -14.1492 N   0  0  0  0  0  0  0  0  0  0  0  0
  -13.7182   -0.6340  -15.3053 C   0  0  0  0  0  0  0  0  0  0  0  0
  -14.1194    0.5576  -15.8356 C   0  0  0  0  0  0  0  0  0  0  0  0
  -15.0001    1.2785  -15.0558 C   0  0  0  0  0  0  0  0  0  0  0  0
  -15.4772    0.8196  -13.8716 N   0  0  0  0  0  0  0  0  0  0  0  0
  -15.3772    2.5845  -15.4716 N   0  0  0  0  0  0  0  0  0  0  0  0
  -14.5076    3.6198  -15.7634 C   0  0  0  0  0  0  0  0  0  0  0  0
  -15.2872    4.6390  -16.2442 C   0  0  0  0  0  0  0  0  0  0  0  0
  -16.6078    4.2983  -16.1964 N   0  0  0  0  0  0  0  0  0  0  0  0
  -16.6688    3.0796  -15.6736 C   0  0  0  0  0  0  0  0  0  0  0  0
  -17.9353    2.4131  -15.3078 C   0  0  0  0  0  0  0  0  0  0  0  0
  -18.9479    3.1501  -14.6781 C   0  0  0  0  0  0  0  0  0  0  0  0
  -20.1746    2.5579  -14.3623 C   0  0  0  0  0  0  0  0  0  0  0  0
  -20.4129    1.2216  -14.6796 C   0  0  0  0  0  0  0  0  0  0  0  0
  -19.4059    0.4628  -15.2617 C   0  0  0  0  0  0  0  0  0  0  0  0
  -18.1652    1.0448  -15.5286 C   0  0  0  0  0  0  0  0  0  0  0  0
  -15.6705   -0.9284  -12.3247 N   0  0  0  0  0  0  0  0  0  0  0  0
  -15.9041   -0.2267  -11.6409 H   0  0  0  0  0  0  0  0  0  0  0  0
  -15.3058   -4.1278  -10.4813 C   0  0  0  0  0  0  0  0  0  0  0  0
  -15.3277   -2.7532  -10.7420 C   0  0  0  0  0  0  0  0  0  0  0  0
  -15.7334   -2.2866  -11.9939 C   0  0  0  0  0  0  0  0  0  0  0  0
  -16.1635   -3.2195  -12.9532 C   0  0  0  0  0  0  0  0  0  0  0  0
  -16.1150   -4.5872  -12.7243 C   0  0  0  0  0  0  0  0  0  0  0  0
  -15.6866   -5.0337  -11.4783 C   0  0  0  0  0  0  0  0  0  0  0  0
  -13.5810   -5.1831   -9.2247 C   0  0  0  0  0  0  0  0  0  0  0  0
  -14.9191   -4.7154   -9.3076 O   0  0  0  0  0  0  0  0  0  0  0  0
  -16.4461   -5.5457  -13.6380 O   0  0  0  0  0  0  0  0  0  0  0  0
  -15.6412   -6.7270  -13.6378 C   0  0  0  0  0  0  0  0  0  0  0  0
 26 27  1  0  0  0
 27 20  1  0  0  0
 20 21  1  0  0  0
 20 25  2  0  0  0
 21 22  2  0  0  0
 22 18  1  0  0  0
 22 23  1  0  0  0
 18  1  1  0  0  0
 18 19  1  0  0  0
  1  2  1  0  0  0
  1  6  2  0  0  0
  2  3  2  0  0  0
  3  4  1  0  0  0
  4  5  2  0  0  0
  5  7  1  0  0  0
  5  6  1  0  0  0
  7  8  1  0  0  0
  7 11  1  0  0  0
  8  9  2  0  0  0
  9 10  1  0  0  0
 10 11  2  0  0  0
 11 12  1  0  0  0
 12 13  1  0  0  0
 12 17  2  0  0  0
 13 14  2  0  0  0
 14 15  1  0  0  0
 15 16  2  0  0  0
 16 17  1  0  0  0
 23 24  2  0  0  0
 24 28  1  0  0  0
 24 25  1  0  0  0
 28 29  1  0  0  0
M  END
> <minimizedAffinity>
-8.45749

$$$$
