CHEMBL1991725


 38 42  0  0  0  0  0  0  0  0999 V2000
  -29.1698   -6.6494   -6.2106 C   0  0  0  0  0  0  0  0  0  0  0  0
  -27.9386   -8.4149   -4.9632 C   0  0  0  0  0  0  0  0  0  0  0  0
  -28.9147   -9.1558   -4.9251 O   0  0  0  0  0  0  0  0  0  0  0  0
  -27.9496   -7.1886   -5.5917 N   0  0  0  0  0  0  0  0  0  0  0  0
  -27.1718   -6.5676   -5.3794 H   0  0  0  0  0  0  0  0  0  0  0  0
  -26.5993   -8.7990   -4.3225 C   0  0  0  0  0  0  0  0  0  0  0  0
  -24.5146   -9.7637   -5.1095 C   0  0  0  0  0  0  0  0  0  0  0  0
  -25.9688   -9.9540   -5.0125 N   0  0  0  0  0  0  0  0  0  0  0  0
  -26.2335  -11.1761   -4.2393 C   0  0  0  0  0  0  0  0  0  0  0  0
  -29.3602   -5.1764   -5.7960 C   0  0  0  0  0  0  0  0  0  0  0  0
  -29.8607   -4.3666   -6.8739 O   0  0  0  0  0  0  0  0  0  0  0  0
  -29.1326   -3.2276   -7.1244 C   0  0  0  0  0  0  0  0  0  0  0  0
  -28.9138   -2.1900   -6.2275 C   0  0  0  0  0  0  0  0  0  0  0  0
  -28.1882   -1.0859   -6.5066 N   0  0  0  0  0  0  0  0  0  0  0  0
  -27.6521   -1.0093   -7.7432 C   0  0  0  0  0  0  0  0  0  0  0  0
  -27.7965   -1.9747   -8.7487 C   0  0  0  0  0  0  0  0  0  0  0  0
  -28.5666   -3.1044   -8.4002 C   0  0  0  0  0  0  0  0  0  0  0  0
  -27.1849   -1.7927  -10.0863 C   0  0  0  0  0  0  0  0  0  0  0  0
  -27.9665   -1.8063  -11.2584 C   0  0  0  0  0  0  0  0  0  0  0  0
  -27.3950   -1.6608  -12.5261 C   0  0  0  0  0  0  0  0  0  0  0  0
  -26.0095   -1.5127  -12.6636 C   0  0  0  0  0  0  0  0  0  0  0  0
  -25.3742   -1.4105  -13.9037 C   0  0  0  0  0  0  0  0  0  0  0  0
  -24.0381   -1.2769  -14.0712 N   0  0  0  0  0  0  0  0  0  0  0  0
  -23.2937   -1.2353  -12.9472 C   0  0  0  0  0  0  0  0  0  0  0  0
  -23.8186   -1.3206  -11.6677 C   0  0  0  0  0  0  0  0  0  0  0  0
  -25.2013   -1.4730  -11.5131 C   0  0  0  0  0  0  0  0  0  0  0  0
  -25.8001   -1.5993  -10.2432 C   0  0  0  0  0  0  0  0  0  0  0  0
  -29.1505   -6.7831   -7.7434 C   0  0  0  0  0  0  0  0  0  0  0  0
  -29.5651   -8.1336   -8.2492 C   0  0  0  0  0  0  0  0  0  0  0  0
  -30.8096   -8.7186   -8.1072 C   0  0  0  0  0  0  0  0  0  0  0  0
  -30.8022   -9.9157   -8.7701 N   0  0  0  0  0  0  0  0  0  0  0  0
  -29.5620  -10.1497   -9.3152 C   0  0  0  0  0  0  0  0  0  0  0  0
  -29.0967  -11.2381  -10.0630 C   0  0  0  0  0  0  0  0  0  0  0  0
  -27.7610  -11.2183  -10.4742 C   0  0  0  0  0  0  0  0  0  0  0  0
  -26.9307  -10.1451  -10.1616 C   0  0  0  0  0  0  0  0  0  0  0  0
  -27.4187   -9.0552   -9.4322 C   0  0  0  0  0  0  0  0  0  0  0  0
  -28.7590   -9.0550   -8.9931 C   0  0  0  0  0  0  0  0  0  0  0  0
  -31.5899  -10.5438   -8.8470 H   0  0  0  0  0  0  0  0  0  0  0  0
  7  8  1  0  0  0
  8  9  1  0  0  0
  8  6  1  0  0  0
  6  2  1  0  0  0
  2  3  2  0  0  0
  2  4  1  0  0  0
  4  1  1  0  0  0
  4  5  1  0  0  0
  1 10  1  0  0  0
  1 28  1  0  0  0
 10 11  1  0  0  0
 11 12  1  0  0  0
 12 13  1  0  0  0
 12 17  2  0  0  0
 13 14  2  0  0  0
 14 15  1  0  0  0
 15 16  2  0  0  0
 16 18  1  0  0  0
 16 17  1  0  0  0
 18 19  1  0  0  0
 18 27  2  0  0  0
 19 20  2  0  0  0
 20 21  1  0  0  0
 21 22  1  0  0  0
 21 26  2  0  0  0
 22 23  2  0  0  0
 23 24  1  0  0  0
 24 25  2  0  0  0
 25 26  1  0  0  0
 26 27  1  0  0  0
 28 29  1  0  0  0
 29 30  2  0  0  0
 29 37  1  0  0  0
 30 31  1  0  0  0
 31 32  1  0  0  0
 31 38  1  0  0  0
 32 33  1  0  0  0
 32 37  2  0  0  0
 33 34  2  0  0  0
 34 35  1  0  0  0
 35 36  2  0  0  0
 36 37  1  0  0  0
M  END
> <minimizedAffinity>
-9.57550

$$$$
