CHEMBL4245780


 37 40  0  0  0  0  0  0  0  0999 V2000
  -28.5681   -3.5143   -7.6893 C   0  0  0  0  0  0  0  0  0  0  0  0
  -27.9934   -3.2731   -8.8816 N   0  0  0  0  0  0  0  0  0  0  0  0
  -27.3887   -2.1076   -9.1069 C   0  0  0  0  0  0  0  0  0  0  0  0
  -27.3242   -1.1314   -8.2133 N   0  0  0  0  0  0  0  0  0  0  0  0
  -27.8841   -1.3977   -7.0128 C   0  0  0  0  0  0  0  0  0  0  0  0
  -27.7957    0.0115   -6.0140 Cl  0  0  0  0  0  0  0  0  0  0  0  0
  -28.5156   -2.5875   -6.6346 C   0  0  0  0  0  0  0  0  0  0  0  0
  -26.8408   -1.8655  -10.4449 C   0  0  0  0  0  0  0  0  0  0  0  0
  -27.6440   -2.0066  -11.5864 C   0  0  0  0  0  0  0  0  0  0  0  0
  -27.1358   -1.8106  -12.8702 C   0  0  0  0  0  0  0  0  0  0  0  0
  -25.7964   -1.4581  -13.0497 C   0  0  0  0  0  0  0  0  0  0  0  0
  -24.9821   -1.3110  -11.9320 C   0  0  0  0  0  0  0  0  0  0  0  0
  -25.4911   -1.5123  -10.6416 C   0  0  0  0  0  0  0  0  0  0  0  0
  -25.1826   -1.2429  -14.2510 O   0  0  0  0  0  0  0  0  0  0  0  0
  -23.8988   -0.6301  -14.2065 C   0  0  0  0  0  0  0  0  0  0  0  0
  -29.0817   -2.8464   -5.2773 C   0  0  0  0  0  0  0  0  0  0  0  0
  -28.3160   -2.6952   -4.1061 C   0  0  0  0  0  0  0  0  0  0  0  0
  -28.8826   -2.7959   -2.8294 C   0  0  0  0  0  0  0  0  0  0  0  0
  -30.2192   -3.1374   -2.6882 C   0  0  0  0  0  0  0  0  0  0  0  0
  -30.9892   -3.3731   -3.8214 C   0  0  0  0  0  0  0  0  0  0  0  0
  -30.4332   -3.2010   -5.0957 C   0  0  0  0  0  0  0  0  0  0  0  0
  -29.3310   -4.6972   -7.5713 N   0  0  0  0  0  0  0  0  0  0  0  0
  -30.3261   -4.5367   -7.4743 H   0  0  0  0  0  0  0  0  0  0  0  0
  -28.2772   -8.6293   -6.3877 C   0  0  0  0  0  0  0  0  0  0  0  0
  -28.5677   -8.3492   -7.7166 C   0  0  0  0  0  0  0  0  0  0  0  0
  -28.8808   -7.0523   -8.1185 C   0  0  0  0  0  0  0  0  0  0  0  0
  -28.9156   -5.9949   -7.2118 C   0  0  0  0  0  0  0  0  0  0  0  0
  -28.6358   -6.2850   -5.8694 C   0  0  0  0  0  0  0  0  0  0  0  0
  -28.3339   -7.5946   -5.4537 C   0  0  0  0  0  0  0  0  0  0  0  0
  -27.9586   -9.8752   -5.9086 O   0  0  0  0  0  0  0  0  0  0  0  0
  -27.0005  -10.5809   -6.7107 C   0  0  0  0  0  0  0  0  0  0  0  0
  -25.8244  -11.0399   -5.8421 C   0  0  0  0  0  0  0  0  0  0  0  0
  -24.5696  -10.2801   -6.0469 N   0  0  0  0  0  0  0  0  0  0  0  0
  -25.1648   -9.0332   -3.9325 C   0  0  0  0  0  0  0  0  0  0  0  0
  -24.1029   -9.7621   -4.7497 C   0  0  0  0  0  0  0  0  0  0  0  0
  -23.5376  -11.0065   -6.8065 C   0  0  0  0  0  0  0  0  0  0  0  0
  -22.0975  -10.5471   -6.5990 C   0  0  0  0  0  0  0  0  0  0  0  0
 34 35  1  0  0  0
 35 33  1  0  0  0
 33 36  1  0  0  0
 33 32  1  0  0  0
 36 37  1  0  0  0
 32 31  1  0  0  0
 31 30  1  0  0  0
 30 24  1  0  0  0
 24 25  1  0  0  0
 24 29  2  0  0  0
 25 26  2  0  0  0
 26 27  1  0  0  0
 27 22  1  0  0  0
 27 28  2  0  0  0
 22  1  1  0  0  0
 22 23  1  0  0  0
  1  2  1  0  0  0
  1  7  2  0  0  0
  2  3  2  0  0  0
  3  8  1  0  0  0
  3  4  1  0  0  0
  8  9  1  0  0  0
  8 13  2  0  0  0
  9 10  2  0  0  0
 10 11  1  0  0  0
 11 14  1  0  0  0
 11 12  2  0  0  0
 14 15  1  0  0  0
 12 13  1  0  0  0
  4  5  2  0  0  0
  5  6  1  0  0  0
  5  7  1  0  0  0
  7 16  1  0  0  0
 16 17  1  0  0  0
 16 21  2  0  0  0
 17 18  2  0  0  0
 18 19  1  0  0  0
 19 20  2  0  0  0
 20 21  1  0  0  0
 28 29  1  0  0  0
M  END
> <minimizedAffinity>
-8.92544

$$$$
