CHEMBL3656026


 41 44  0  0  0  0  0  0  0  0999 V2000
  -30.8210   -6.2187   -5.4732 C   0  0  0  0  0  0  0  0  0  0  0  0
  -29.7288   -5.3720   -5.5840 C   0  0  0  0  0  0  0  0  0  0  0  0
  -29.5293   -4.4120   -4.6013 C   0  0  0  0  0  0  0  0  0  0  0  0
  -30.4826   -4.2458   -3.6064 C   0  0  0  0  0  0  0  0  0  0  0  0
  -31.5689   -5.1061   -3.6000 C   0  0  0  0  0  0  0  0  0  0  0  0
  -31.7571   -6.1009   -4.5010 N   0  0  0  0  0  0  0  0  0  0  0  0
  -30.7627   -9.0026   -7.9484 C   0  0  0  0  0  0  0  0  0  0  0  0
  -32.0761   -8.9755   -7.5076 C   0  0  0  0  0  0  0  0  0  0  0  0
  -32.1977   -7.9852   -6.5605 N   0  0  0  0  0  0  0  0  0  0  0  0
  -31.0002   -7.3288   -6.4004 C   0  0  0  0  0  0  0  0  0  0  0  0
  -30.0987   -7.9612   -7.2373 C   0  0  0  0  0  0  0  0  0  0  0  0
  -33.0340   -7.7471   -6.0406 H   0  0  0  0  0  0  0  0  0  0  0  0
  -29.2200   -9.2901   -9.7634 N   0  0  0  0  0  0  0  0  0  0  0  0
  -30.1202   -9.8851   -8.9217 C   0  0  0  0  0  0  0  0  0  0  0  0
  -30.3735  -11.0835   -8.9754 O   0  0  0  0  0  0  0  0  0  0  0  0
  -29.0179   -8.2995   -9.6936 H   0  0  0  0  0  0  0  0  0  0  0  0
  -28.5466  -10.0636  -10.7881 C   0  0  0  0  0  0  0  0  0  0  0  0
  -27.0642   -9.7427  -10.8213 C   0  0  0  0  0  0  0  0  0  0  0  0
  -26.5543   -8.8836  -11.5326 O   0  0  0  0  0  0  0  0  0  0  0  0
  -27.0225  -11.8017   -9.7076 C   0  0  0  0  0  0  0  0  0  0  0  0
  -26.3921  -10.5435   -9.9481 O   0  0  0  0  0  0  0  0  0  0  0  0
  -28.4421   -3.5699   -4.5760 O   0  0  0  0  0  0  0  0  0  0  0  0
  -28.3960   -2.4938   -5.4364 C   0  0  0  0  0  0  0  0  0  0  0  0
  -27.8323   -2.7472   -6.6884 C   0  0  0  0  0  0  0  0  0  0  0  0
  -27.7658   -1.7350   -7.6620 C   0  0  0  0  0  0  0  0  0  0  0  0
  -28.2700   -0.4624   -7.3873 C   0  0  0  0  0  0  0  0  0  0  0  0
  -28.8491   -0.2114   -6.1394 C   0  0  0  0  0  0  0  0  0  0  0  0
  -28.9257   -1.2265   -5.1858 C   0  0  0  0  0  0  0  0  0  0  0  0
  -29.5349   -0.9472   -4.0246 F   0  0  0  0  0  0  0  0  0  0  0  0
  -27.2508   -2.1204   -8.9992 C   0  0  0  0  0  0  0  0  0  0  0  0
  -27.2385   -3.3219   -9.2498 O   0  0  0  0  0  0  0  0  0  0  0  0
  -26.7866   -1.1053   -9.8211 N   0  0  0  0  0  0  0  0  0  0  0  0
  -26.6519   -0.1787   -9.4323 H   0  0  0  0  0  0  0  0  0  0  0  0
  -26.2674   -1.3092  -11.1284 C   0  0  0  0  0  0  0  0  0  0  0  0
  -24.9055   -1.2335  -11.4229 C   0  0  0  0  0  0  0  0  0  0  0  0
  -24.4223   -1.4021  -12.7286 C   0  0  0  0  0  0  0  0  0  0  0  0
  -22.9482   -1.3007  -12.9964 C   0  0  0  0  0  0  0  0  0  0  0  0
  -25.3256   -1.6663  -13.7606 C   0  0  0  0  0  0  0  0  0  0  0  0
  -26.6904   -1.7670  -13.4824 C   0  0  0  0  0  0  0  0  0  0  0  0
  -27.1504   -1.5965  -12.1761 C   0  0  0  0  0  0  0  0  0  0  0  0
  -28.4651   -1.6857  -11.9338 F   0  0  0  0  0  0  0  0  0  0  0  0
 20 21  1  0  0  0
 21 18  1  0  0  0
 18 19  2  0  0  0
 18 17  1  0  0  0
 17 13  1  0  0  0
 13 14  1  0  0  0
 13 16  1  0  0  0
 14 15  2  0  0  0
 14  7  1  0  0  0
  7  8  2  0  0  0
  7 11  1  0  0  0
  8  9  1  0  0  0
  9 10  1  0  0  0
  9 12  1  0  0  0
 10  1  1  0  0  0
 10 11  2  0  0  0
  1  2  1  0  0  0
  1  6  2  0  0  0
  2  3  2  0  0  0
  3 22  1  0  0  0
  3  4  1  0  0  0
 22 23  1  0  0  0
 23 24  1  0  0  0
 23 28  2  0  0  0
 24 25  2  0  0  0
 25 30  1  0  0  0
 25 26  1  0  0  0
 30 31  2  0  0  0
 30 32  1  0  0  0
 32 34  1  0  0  0
 32 33  1  0  0  0
 34 35  1  0  0  0
 34 40  2  0  0  0
 35 36  2  0  0  0
 36 37  1  0  0  0
 36 38  1  0  0  0
 38 39  2  0  0  0
 39 40  1  0  0  0
 40 41  1  0  0  0
 26 27  2  0  0  0
 27 28  1  0  0  0
 28 29  1  0  0  0
  4  5  2  0  0  0
  5  6  1  0  0  0
M  END
> <minimizedAffinity>
-10.56420

$$$$
