CHEMBL3690425


 34 37  0  0  0  0  0  0  0  0999 V2000
  -23.3352    0.1838  -13.8169 C   0  0  0  0  0  0  0  0  0  0  0  0
  -22.0837   -0.5462  -13.9573 C   0  0  0  0  0  0  0  0  0  0  0  0
  -20.9465    0.1393  -14.1441 C   0  0  0  0  0  0  0  0  0  0  0  0
  -20.9799    1.5364  -14.2350 N   0  0  0  0  0  0  0  0  0  0  0  0
  -19.9721    2.4574  -14.5190 C   0  0  0  0  0  0  0  0  0  0  0  0
  -20.5921    3.6844  -14.3346 C   0  0  0  0  0  0  0  0  0  0  0  0
  -21.9273    3.5579  -14.0525 N   0  0  0  0  0  0  0  0  0  0  0  0
  -22.1577    2.2640  -14.0468 C   0  0  0  0  0  0  0  0  0  0  0  0
  -23.3716    1.5332  -13.8643 C   0  0  0  0  0  0  0  0  0  0  0  0
  -26.9219   -1.4949  -11.0423 C   0  0  0  0  0  0  0  0  0  0  0  0
  -26.3241   -1.3916  -12.3568 N   0  0  0  0  0  0  0  0  0  0  0  0
  -25.1112   -0.7400  -12.4358 N   0  0  0  0  0  0  0  0  0  0  0  0
  -24.6098   -0.5623  -13.6198 C   0  0  0  0  0  0  0  0  0  0  0  0
  -25.2368   -1.0194  -14.8754 C   0  0  0  0  0  0  0  0  0  0  0  0
  -26.4008   -1.6573  -14.7710 C   0  0  0  0  0  0  0  0  0  0  0  0
  -27.0211   -1.8853  -13.4494 C   0  0  0  0  0  0  0  0  0  0  0  0
  -28.1040   -2.4676  -13.3930 O   0  0  0  0  0  0  0  0  0  0  0  0
  -18.6053    2.1496  -14.9669 C   0  0  0  0  0  0  0  0  0  0  0  0
  -17.8910    3.0695  -15.7480 C   0  0  0  0  0  0  0  0  0  0  0  0
  -16.5995    2.7975  -16.1825 C   0  0  0  0  0  0  0  0  0  0  0  0
  -15.9773    1.6174  -15.7971 C   0  0  0  0  0  0  0  0  0  0  0  0
  -16.6392    0.6851  -14.9952 C   0  0  0  0  0  0  0  0  0  0  0  0
  -17.9541    0.9632  -14.5777 C   0  0  0  0  0  0  0  0  0  0  0  0
  -16.0305   -0.5282  -14.5931 N   0  0  0  0  0  0  0  0  0  0  0  0
  -15.6581   -0.8434  -13.3058 C   0  0  0  0  0  0  0  0  0  0  0  0
  -15.7388   -0.1308  -12.3184 O   0  0  0  0  0  0  0  0  0  0  0  0
  -15.0726   -2.0857  -13.2146 N   0  0  0  0  0  0  0  0  0  0  0  0
  -15.6848   -1.1344  -15.3217 H   0  0  0  0  0  0  0  0  0  0  0  0
  -15.4511   -2.7932  -13.8297 H   0  0  0  0  0  0  0  0  0  0  0  0
  -14.6229   -2.5338  -11.8897 C   0  0  0  0  0  0  0  0  0  0  0  0
  -15.6735   -3.2503  -11.0274 C   0  0  0  0  0  0  0  0  0  0  0  0
  -15.1416   -4.2844  -10.3358 F   0  0  0  0  0  0  0  0  0  0  0  0
  -16.1793   -2.3869  -10.1103 F   0  0  0  0  0  0  0  0  0  0  0  0
  -16.7106   -3.7159  -11.7529 F   0  0  0  0  0  0  0  0  0  0  0  0
 10 11  1  0  0  0
 11 12  1  0  0  0
 11 16  1  0  0  0
 12 13  2  0  0  0
 13  1  1  0  0  0
 13 14  1  0  0  0
  1  2  1  0  0  0
  1  9  2  0  0  0
  2  3  2  0  0  0
  3  4  1  0  0  0
  4  5  1  0  0  0
  4  8  1  0  0  0
  5 18  1  0  0  0
  5  6  2  0  0  0
 18 19  1  0  0  0
 18 23  2  0  0  0
 19 20  2  0  0  0
 20 21  1  0  0  0
 21 22  2  0  0  0
 22 24  1  0  0  0
 22 23  1  0  0  0
 24 25  1  0  0  0
 24 28  1  0  0  0
 25 26  2  0  0  0
 25 27  1  0  0  0
 27 30  1  0  0  0
 27 29  1  0  0  0
 30 31  1  0  0  0
 31 32  1  0  0  0
 31 33  1  0  0  0
 31 34  1  0  0  0
  6  7  1  0  0  0
  7  8  2  0  0  0
  8  9  1  0  0  0
 14 15  2  0  0  0
 15 16  1  0  0  0
 16 17  2  0  0  0
M  END
> <minimizedAffinity>
-10.52879

$$$$
