CHEMBL4084878


 32 35  0  0  0  0  0  0  0  0999 V2000
  -22.6585   -0.2942  -13.7923 C   0  0  0  0  0  0  0  0  0  0  0  0
  -22.6897   -0.6131  -12.4368 C   0  0  0  0  0  0  0  0  0  0  0  0
  -23.8569   -1.0493  -11.8081 C   0  0  0  0  0  0  0  0  0  0  0  0
  -25.0250   -1.2839  -12.5315 C   0  0  0  0  0  0  0  0  0  0  0  0
  -24.9880   -1.0816  -13.9121 C   0  0  0  0  0  0  0  0  0  0  0  0
  -23.8247   -0.5768  -14.5292 C   0  0  0  0  0  0  0  0  0  0  0  0
  -23.0601    3.2567  -13.4943 C   0  0  0  0  0  0  0  0  0  0  0  0
  -21.7523    2.9266  -14.1252 C   0  0  0  0  0  0  0  0  0  0  0  0
  -20.9571    3.9611  -14.4458 N   0  0  0  0  0  0  0  0  0  0  0  0
  -19.8863    3.3832  -15.0037 N   0  0  0  0  0  0  0  0  0  0  0  0
  -19.9483    2.0260  -15.0514 C   0  0  0  0  0  0  0  0  0  0  0  0
  -18.9900    1.2377  -15.5725 N   0  0  0  0  0  0  0  0  0  0  0  0
  -19.2866   -0.0693  -15.4874 C   0  0  0  0  0  0  0  0  0  0  0  0
  -20.4449   -0.5964  -14.9376 C   0  0  0  0  0  0  0  0  0  0  0  0
  -21.4355    0.2568  -14.4044 C   0  0  0  0  0  0  0  0  0  0  0  0
  -21.1596    1.6558  -14.4705 C   0  0  0  0  0  0  0  0  0  0  0  0
  -19.1303    3.9641  -15.3400 H   0  0  0  0  0  0  0  0  0  0  0  0
  -26.2146   -1.7617  -11.9267 N   0  0  0  0  0  0  0  0  0  0  0  0
  -26.4876   -1.6928  -10.5706 C   0  0  0  0  0  0  0  0  0  0  0  0
  -25.8101   -1.0698   -9.7581 O   0  0  0  0  0  0  0  0  0  0  0  0
  -27.5968   -2.4512  -10.2102 N   0  0  0  0  0  0  0  0  0  0  0  0
  -26.9868   -1.9948  -12.5339 H   0  0  0  0  0  0  0  0  0  0  0  0
  -27.7233   -3.2861  -10.7628 H   0  0  0  0  0  0  0  0  0  0  0  0
  -27.9535   -2.5457   -8.8407 C   0  0  0  0  0  0  0  0  0  0  0  0
  -27.7566   -1.4798   -7.9636 C   0  0  0  0  0  0  0  0  0  0  0  0
  -27.9559   -1.6443   -6.5879 C   0  0  0  0  0  0  0  0  0  0  0  0
  -28.3677   -2.8697   -6.0322 C   0  0  0  0  0  0  0  0  0  0  0  0
  -28.6091   -3.9045   -6.9514 C   0  0  0  0  0  0  0  0  0  0  0  0
  -28.4295   -3.7494   -8.3347 C   0  0  0  0  0  0  0  0  0  0  0  0
  -28.4789   -3.0310   -4.6615 N   0  0  0  0  0  0  0  0  0  0  0  0
  -29.3569   -2.1863   -3.8559 C   0  0  0  0  0  0  0  0  0  0  0  0
  -27.8961   -4.1678   -3.9615 C   0  0  0  0  0  0  0  0  0  0  0  0
  7  8  1  0  0  0
  8  9  2  0  0  0
  8 16  1  0  0  0
  9 10  1  0  0  0
 10 11  1  0  0  0
 10 17  1  0  0  0
 11 12  1  0  0  0
 11 16  2  0  0  0
 12 13  2  0  0  0
 13 14  1  0  0  0
 14 15  2  0  0  0
 15  1  1  0  0  0
 15 16  1  0  0  0
  1  2  1  0  0  0
  1  6  2  0  0  0
  2  3  2  0  0  0
  3  4  1  0  0  0
  4 18  1  0  0  0
  4  5  2  0  0  0
 18 19  1  0  0  0
 18 22  1  0  0  0
 19 20  2  0  0  0
 19 21  1  0  0  0
 21 24  1  0  0  0
 21 23  1  0  0  0
 24 25  1  0  0  0
 24 29  2  0  0  0
 25 26  2  0  0  0
 26 27  1  0  0  0
 27 30  1  0  0  0
 27 28  2  0  0  0
 30 31  1  0  0  0
 30 32  1  0  0  0
 28 29  1  0  0  0
  5  6  1  0  0  0
M  END
> <minimizedAffinity>
-9.19445

$$$$
