CHEMBL2349001


 32 36  0  0  0  0  0  0  0  0999 V2000
  -18.4471    2.5262  -16.1124 O   0  0  0  0  0  0  0  0  0  0  0  0
  -19.6441    2.1881  -15.4774 C   0  0  0  0  0  0  0  0  0  0  0  0
  -20.2834    3.4304  -14.9790 C   0  0  0  0  0  0  0  0  0  0  0  0
  -21.4212    3.2839  -14.2853 C   0  0  0  0  0  0  0  0  0  0  0  0
  -21.9575    1.9891  -14.1002 C   0  0  0  0  0  0  0  0  0  0  0  0
  -23.0366    1.5746  -13.4721 N   0  0  0  0  0  0  0  0  0  0  0  0
  -23.0510    0.2176  -13.6225 C   0  0  0  0  0  0  0  0  0  0  0  0
  -21.9671   -0.2053  -14.3577 C   0  0  0  0  0  0  0  0  0  0  0  0
  -21.2611    0.9297  -14.6566 N   0  0  0  0  0  0  0  0  0  0  0  0
  -20.0869    0.9775  -15.3518 N   0  0  0  0  0  0  0  0  0  0  0  0
  -24.0117   -0.6187  -13.1022 N   0  0  0  0  0  0  0  0  0  0  0  0
  -24.9882   -1.2520  -13.8391 C   0  0  0  0  0  0  0  0  0  0  0  0
  -25.1680   -1.2110  -15.0472 O   0  0  0  0  0  0  0  0  0  0  0  0
  -24.0012   -0.7451  -12.1019 H   0  0  0  0  0  0  0  0  0  0  0  0
  -25.9325   -2.0422  -12.9795 C   0  0  0  0  0  0  0  0  0  0  0  0
  -27.4224   -2.0435  -13.2425 C   0  0  0  0  0  0  0  0  0  0  0  0
  -26.8771   -1.2999  -12.0593 C   0  0  0  0  0  0  0  0  0  0  0  0
  -16.0008    0.2004  -14.5596 C   0  0  0  0  0  0  0  0  0  0  0  0
  -14.8175    0.9097  -14.8108 C   0  0  0  0  0  0  0  0  0  0  0  0
  -14.8311    2.1553  -15.4355 C   0  0  0  0  0  0  0  0  0  0  0  0
  -16.0343    2.7106  -15.8424 C   0  0  0  0  0  0  0  0  0  0  0  0
  -17.2202    2.0078  -15.6273 C   0  0  0  0  0  0  0  0  0  0  0  0
  -17.2122    0.7365  -15.0254 C   0  0  0  0  0  0  0  0  0  0  0  0
  -15.8007   -0.1637  -11.7045 O   0  0  0  0  0  0  0  0  0  0  0  0
  -15.8558   -1.1340  -12.4610 C   0  0  0  0  0  0  0  0  0  0  0  0
  -15.9900   -1.0313  -13.8465 N   0  0  0  0  0  0  0  0  0  0  0  0
  -16.2316   -1.8766  -14.3499 H   0  0  0  0  0  0  0  0  0  0  0  0
  -15.8233   -2.4611  -11.9006 C   0  0  0  0  0  0  0  0  0  0  0  0
  -16.1558   -3.6676  -12.4827 C   0  0  0  0  0  0  0  0  0  0  0  0
  -15.9739   -4.6118  -11.4657 C   0  0  0  0  0  0  0  0  0  0  0  0
  -15.5499   -4.0457  -10.3332 N   0  0  0  0  0  0  0  0  0  0  0  0
  -15.4546   -2.6843  -10.6082 O   0  0  0  0  0  0  0  0  0  0  0  0
 24 25  2  0  0  0
 25 26  1  0  0  0
 25 28  1  0  0  0
 26 18  1  0  0  0
 26 27  1  0  0  0
 18 19  1  0  0  0
 18 23  2  0  0  0
 19 20  2  0  0  0
 20 21  1  0  0  0
 21 22  2  0  0  0
 22  1  1  0  0  0
 22 23  1  0  0  0
  1  2  1  0  0  0
  2  3  1  0  0  0
  2 10  2  0  0  0
  3  4  2  0  0  0
  4  5  1  0  0  0
  5  6  2  0  0  0
  5  9  1  0  0  0
  6  7  1  0  0  0
  7 11  1  0  0  0
  7  8  2  0  0  0
 11 12  1  0  0  0
 11 14  1  0  0  0
 12 13  2  0  0  0
 12 15  1  0  0  0
 15 16  1  0  0  0
 15 17  1  0  0  0
 16 17  1  0  0  0
  8  9  1  0  0  0
  9 10  1  0  0  0
 28 29  2  0  0  0
 28 32  1  0  0  0
 29 30  1  0  0  0
 30 31  2  0  0  0
 31 32  1  0  0  0
M  END
> <minimizedAffinity>
-10.06976

$$$$
