CHEMBL3644557


 38 41  0  0  0  0  0  0  0  0999 V2000
  -26.0883   10.9056  -15.8354 C   0  0  0  0  0  0  0  0  0  0  0  0
  -26.1809    9.5870  -16.2724 C   0  0  0  0  0  0  0  0  0  0  0  0
  -25.3290    9.1451  -17.2808 C   0  0  0  0  0  0  0  0  0  0  0  0
  -24.3933   10.0194  -17.8633 C   0  0  0  0  0  0  0  0  0  0  0  0
  -24.2845   11.3565  -17.4612 C   0  0  0  0  0  0  0  0  0  0  0  0
  -25.1394   11.7609  -16.4275 C   0  0  0  0  0  0  0  0  0  0  0  0
  -23.4315   12.2434  -18.0925 N   0  0  0  0  0  0  0  0  0  0  0  0
  -22.1364   12.6015  -17.5139 C   0  0  0  0  0  0  0  0  0  0  0  0
  -21.0221   11.8740  -18.2612 C   0  0  0  0  0  0  0  0  0  0  0  0
  -21.1431   11.9969  -19.7634 C   0  0  0  0  0  0  0  0  0  0  0  0
  -22.3909   12.3686  -20.3203 C   0  0  0  0  0  0  0  0  0  0  0  0
  -22.4692   12.5225  -21.7032 C   0  0  0  0  0  0  0  0  0  0  0  0
  -21.4419   12.3082  -22.5519 N   0  0  0  0  0  0  0  0  0  0  0  0
  -20.2649   11.9285  -21.9973 C   0  0  0  0  0  0  0  0  0  0  0  0
  -20.0614   11.7467  -20.6317 C   0  0  0  0  0  0  0  0  0  0  0  0
  -23.6228   12.6590  -19.4825 C   0  0  0  0  0  0  0  0  0  0  0  0
  -18.6918   11.3412  -20.2188 C   0  0  0  0  0  0  0  0  0  0  0  0
  -18.0103   12.0894  -19.5239 O   0  0  0  0  0  0  0  0  0  0  0  0
  -18.2101   10.1461  -20.7116 N   0  0  0  0  0  0  0  0  0  0  0  0
  -18.6995    9.6911  -21.4695 H   0  0  0  0  0  0  0  0  0  0  0  0
  -16.8660    9.6805  -20.4235 C   0  0  0  0  0  0  0  0  0  0  0  0
  -16.2171    9.0382  -21.6480 C   0  0  0  0  0  0  0  0  0  0  0  0
  -15.2277    7.9299  -21.3024 C   0  0  0  0  0  0  0  0  0  0  0  0
  -15.9142    6.7207  -21.0181 O   0  0  0  0  0  0  0  0  0  0  0  0
  -16.2724    6.8093  -20.1079 H   0  0  0  0  0  0  0  0  0  0  0  0
  -28.1453   10.7932  -14.4860 N   0  0  0  0  0  0  0  0  0  0  0  0
  -27.0139   11.5145  -14.8429 C   0  0  0  0  0  0  0  0  0  0  0  0
  -26.6818   12.5997  -14.3707 O   0  0  0  0  0  0  0  0  0  0  0  0
  -28.1795    9.8134  -14.7335 H   0  0  0  0  0  0  0  0  0  0  0  0
  -31.4328   11.2094  -12.7782 C   0  0  0  0  0  0  0  0  0  0  0  0
  -31.0505   11.9291  -11.6373 C   0  0  0  0  0  0  0  0  0  0  0  0
  -29.7327   12.3412  -11.4730 C   0  0  0  0  0  0  0  0  0  0  0  0
  -28.7739   12.0058  -12.4265 C   0  0  0  0  0  0  0  0  0  0  0  0
  -29.1127   11.2512  -13.5533 C   0  0  0  0  0  0  0  0  0  0  0  0
  -30.4563   10.9066  -13.7506 C   0  0  0  0  0  0  0  0  0  0  0  0
  -33.4161   10.9527  -14.3165 C   0  0  0  0  0  0  0  0  0  0  0  0
  -32.8720   10.7385  -12.9046 C   0  0  0  0  0  0  0  0  0  0  0  0
  -33.0267    9.2784  -12.4704 C   0  0  0  0  0  0  0  0  0  0  0  0
 36 37  1  0  0  0
 37 38  1  0  0  0
 37 30  1  0  0  0
 30 31  1  0  0  0
 30 35  2  0  0  0
 31 32  2  0  0  0
 32 33  1  0  0  0
 33 34  2  0  0  0
 34 26  1  0  0  0
 34 35  1  0  0  0
 26 27  1  0  0  0
 26 29  1  0  0  0
 27 28  2  0  0  0
 27  1  1  0  0  0
  1  2  1  0  0  0
  1  6  2  0  0  0
  2  3  2  0  0  0
  3  4  1  0  0  0
  4  5  2  0  0  0
  5  7  1  0  0  0
  5  6  1  0  0  0
  7  8  1  0  0  0
  7 16  1  0  0  0
  8  9  1  0  0  0
  9 10  1  0  0  0
 10 11  1  0  0  0
 10 15  2  0  0  0
 11 12  2  0  0  0
 11 16  1  0  0  0
 12 13  1  0  0  0
 13 14  2  0  0  0
 14 15  1  0  0  0
 15 17  1  0  0  0
 17 18  2  0  0  0
 17 19  1  0  0  0
 19 21  1  0  0  0
 19 20  1  0  0  0
 21 22  1  0  0  0
 22 23  1  0  0  0
 23 24  1  0  0  0
 24 25  1  0  0  0
M  END
> <minimizedAffinity>
-3.23769

$$$$
