CHEMBL3938265


 44 48  0  0  0  0  0  0  0  0999 V2000
  -28.3343   -2.8809   -8.0316 C   0  0  0  0  0  0  0  0  0  0  0  0
  -27.8954   -3.5212   -9.1993 C   0  0  0  0  0  0  0  0  0  0  0  0
  -27.1185   -2.8480  -10.1415 C   0  0  0  0  0  0  0  0  0  0  0  0
  -26.7372   -1.5175   -9.9390 C   0  0  0  0  0  0  0  0  0  0  0  0
  -27.1747   -0.8688   -8.7699 C   0  0  0  0  0  0  0  0  0  0  0  0
  -27.9724   -1.5435   -7.8299 C   0  0  0  0  0  0  0  0  0  0  0  0
  -30.7918   -6.2967   -5.1811 C   0  0  0  0  0  0  0  0  0  0  0  0
  -31.3129   -6.1322   -3.9437 N   0  0  0  0  0  0  0  0  0  0  0  0
  -31.2881   -4.8983   -3.3980 C   0  0  0  0  0  0  0  0  0  0  0  0
  -30.7930   -3.7628   -3.9249 N   0  0  0  0  0  0  0  0  0  0  0  0
  -30.2944   -3.9815   -5.1470 C   0  0  0  0  0  0  0  0  0  0  0  0
  -29.6644   -3.0434   -5.9206 N   0  0  0  0  0  0  0  0  0  0  0  0
  -29.1919   -3.6071   -7.0921 C   0  0  0  0  0  0  0  0  0  0  0  0
  -29.6213   -4.9252   -7.0842 C   0  0  0  0  0  0  0  0  0  0  0  0
  -30.2717   -5.1748   -5.8400 C   0  0  0  0  0  0  0  0  0  0  0  0
  -29.5142   -2.0906   -5.6264 H   0  0  0  0  0  0  0  0  0  0  0  0
  -30.7221   -7.5442   -5.7888 N   0  0  0  0  0  0  0  0  0  0  0  0
  -29.7429   -7.8188   -5.8169 H   0  0  0  0  0  0  0  0  0  0  0  0
  -32.7495   -8.2707   -7.0174 C   0  0  0  0  0  0  0  0  0  0  0  0
  -31.3294   -7.6986   -7.1110 C   0  0  0  0  0  0  0  0  0  0  0  0
  -30.4256   -8.6552   -7.8826 C   0  0  0  0  0  0  0  0  0  0  0  0
  -30.8659   -9.9428   -8.2167 C   0  0  0  0  0  0  0  0  0  0  0  0
  -30.0642  -10.7846   -8.9918 C   0  0  0  0  0  0  0  0  0  0  0  0
  -28.8159  -10.3519   -9.4381 C   0  0  0  0  0  0  0  0  0  0  0  0
  -28.3570   -9.0825   -9.0993 C   0  0  0  0  0  0  0  0  0  0  0  0
  -29.1549   -8.2412   -8.3250 C   0  0  0  0  0  0  0  0  0  0  0  0
  -25.8802   -0.8212  -10.9799 C   0  0  0  0  0  0  0  0  0  0  0  0
  -24.9048   -1.7093  -11.6432 N   0  0  0  0  0  0  0  0  0  0  0  0
  -23.5155   -1.2937  -11.3516 C   0  0  0  0  0  0  0  0  0  0  0  0
  -23.0683    0.0285  -12.0205 C   0  0  0  0  0  0  0  0  0  0  0  0
  -23.3728    0.1640  -13.4546 N   0  0  0  0  0  0  0  0  0  0  0  0
  -24.6874   -0.4045  -13.8028 C   0  0  0  0  0  0  0  0  0  0  0  0
  -25.0562   -1.7310  -13.1093 C   0  0  0  0  0  0  0  0  0  0  0  0
  -22.2674   -0.2674  -14.3158 C   0  0  0  0  0  0  0  0  0  0  0  0
  -21.0158    0.6186  -14.1843 C   0  0  0  0  0  0  0  0  0  0  0  0
  -21.2920    2.0757  -14.5693 C   0  0  0  0  0  0  0  0  0  0  0  0
  -20.0008    2.8649  -14.7425 C   0  0  0  0  0  0  0  0  0  0  0  0
  -18.8768    1.9483  -15.2138 C   0  0  0  0  0  0  0  0  0  0  0  0
  -17.5764    2.6987  -15.3726 C   0  0  0  0  0  0  0  0  0  0  0  0
  -16.4648    2.1766  -15.4015 O   0  0  0  0  0  0  0  0  0  0  0  0
  -17.7447    4.0580  -15.4998 N   0  0  0  0  0  0  0  0  0  0  0  0
  -16.5438    4.8058  -15.5324 O   0  0  0  0  0  0  0  0  0  0  0  0
  -18.5658    4.5387  -15.1481 H   0  0  0  0  0  0  0  0  0  0  0  0
  -15.8584    4.1009  -15.5043 H   0  0  0  0  0  0  0  0  0  0  0  0
 19 20  1  0  0  0
 20 17  1  0  0  0
 20 21  1  0  0  0
 17  7  1  0  0  0
 17 18  1  0  0  0
  7  8  1  0  0  0
  7 15  2  0  0  0
  8  9  2  0  0  0
  9 10  1  0  0  0
 10 11  2  0  0  0
 11 12  1  0  0  0
 11 15  1  0  0  0
 12 13  1  0  0  0
 12 16  1  0  0  0
 13  1  1  0  0  0
 13 14  2  0  0  0
  1  2  1  0  0  0
  1  6  2  0  0  0
  2  3  2  0  0  0
  3  4  1  0  0  0
  4 27  1  0  0  0
  4  5  2  0  0  0
 27 28  1  0  0  0
 28 29  1  0  0  0
 28 33  1  0  0  0
 29 30  1  0  0  0
 30 31  1  0  0  0
 31 34  1  0  0  0
 31 32  1  0  0  0
 34 35  1  0  0  0
 35 36  1  0  0  0
 36 37  1  0  0  0
 37 38  1  0  0  0
 38 39  1  0  0  0
 39 40  2  0  0  0
 39 41  1  0  0  0
 41 42  1  0  0  0
 41 43  1  0  0  0
 42 44  1  0  0  0
 32 33  1  0  0  0
  5  6  1  0  0  0
 14 15  1  0  0  0
 21 22  1  0  0  0
 21 26  2  0  0  0
 22 23  2  0  0  0
 23 24  1  0  0  0
 24 25  2  0  0  0
 25 26  1  0  0  0
M  END
> <minimizedAffinity>
-8.89231

$$$$
