CHEMBL3287596


 42 46  0  0  0  0  0  0  0  0999 V2000
  -30.1375   -9.7829   -7.6476 C   0  0  0  0  0  0  0  0  0  0  0  0
  -29.2285   -9.2164   -6.7510 C   0  0  0  0  0  0  0  0  0  0  0  0
  -29.6049   -8.1552   -5.9359 C   0  0  0  0  0  0  0  0  0  0  0  0
  -30.8673   -7.5810   -6.0504 C   0  0  0  0  0  0  0  0  0  0  0  0
  -31.7542   -8.0810   -7.0129 C   0  0  0  0  0  0  0  0  0  0  0  0
  -31.3799   -9.1734   -7.8077 C   0  0  0  0  0  0  0  0  0  0  0  0
  -32.2484   -9.6345   -8.7200 F   0  0  0  0  0  0  0  0  0  0  0  0
  -31.2845   -6.5287   -5.2115 N   0  0  0  0  0  0  0  0  0  0  0  0
  -30.5190   -5.9110   -4.2391 C   0  0  0  0  0  0  0  0  0  0  0  0
  -29.3426   -6.1154   -3.9494 O   0  0  0  0  0  0  0  0  0  0  0  0
  -32.2323   -6.1907   -5.3356 H   0  0  0  0  0  0  0  0  0  0  0  0
  -31.2460   -4.8675   -3.4655 C   0  0  0  0  0  0  0  0  0  0  0  0
  -31.9631   -5.3258   -2.1860 C   0  0  0  0  0  0  0  0  0  0  0  0
  -32.7689   -4.9480   -3.3859 C   0  0  0  0  0  0  0  0  0  0  0  0
  -30.6081   -3.5160   -3.4582 C   0  0  0  0  0  0  0  0  0  0  0  0
  -30.6218   -2.8942   -2.4062 O   0  0  0  0  0  0  0  0  0  0  0  0
  -30.0685   -3.0874   -4.6690 N   0  0  0  0  0  0  0  0  0  0  0  0
  -30.2232   -3.6715   -5.4880 H   0  0  0  0  0  0  0  0  0  0  0  0
  -29.4003   -1.8538   -4.8568 C   0  0  0  0  0  0  0  0  0  0  0  0
  -28.0469   -1.6785   -4.5304 C   0  0  0  0  0  0  0  0  0  0  0  0
  -27.4373   -0.4263   -4.6001 C   0  0  0  0  0  0  0  0  0  0  0  0
  -28.1768    0.6633   -5.0213 C   0  0  0  0  0  0  0  0  0  0  0  0
  -27.6102    1.8755   -5.0420 F   0  0  0  0  0  0  0  0  0  0  0  0
  -29.5015    0.5089   -5.4209 C   0  0  0  0  0  0  0  0  0  0  0  0
  -30.1102   -0.7538   -5.3546 C   0  0  0  0  0  0  0  0  0  0  0  0
  -29.8364  -10.9245   -8.3686 O   0  0  0  0  0  0  0  0  0  0  0  0
  -26.4071  -11.2481   -9.3098 C   0  0  0  0  0  0  0  0  0  0  0  0
  -26.3379  -10.6000  -10.4776 N   0  0  0  0  0  0  0  0  0  0  0  0
  -27.5020  -10.1379  -10.9852 C   0  0  0  0  0  0  0  0  0  0  0  0
  -28.7209  -10.2466  -10.3566 C   0  0  0  0  0  0  0  0  0  0  0  0
  -28.6772  -10.8703   -9.1423 C   0  0  0  0  0  0  0  0  0  0  0  0
  -27.5519  -11.4030   -8.6434 N   0  0  0  0  0  0  0  0  0  0  0  0
  -25.2225  -11.7417   -8.7608 N   0  0  0  0  0  0  0  0  0  0  0  0
  -25.0131  -12.6509   -9.1453 H   0  0  0  0  0  0  0  0  0  0  0  0
  -23.3952  -10.8703   -5.0346 C   0  0  0  0  0  0  0  0  0  0  0  0
  -24.6767  -10.4097   -5.3063 C   0  0  0  0  0  0  0  0  0  0  0  0
  -25.2732  -10.6841   -6.5373 C   0  0  0  0  0  0  0  0  0  0  0  0
  -24.6312  -11.4474   -7.5198 C   0  0  0  0  0  0  0  0  0  0  0  0
  -23.3217  -11.8653   -7.2542 C   0  0  0  0  0  0  0  0  0  0  0  0
  -22.7154  -11.5893   -6.0191 C   0  0  0  0  0  0  0  0  0  0  0  0
  -21.8949  -11.7565   -3.4302 C   0  0  0  0  0  0  0  0  0  0  0  0
  -22.7190  -10.6776   -3.8618 O   0  0  0  0  0  0  0  0  0  0  0  0
 41 42  1  0  0  0
 42 35  1  0  0  0
 35 36  1  0  0  0
 35 40  2  0  0  0
 36 37  2  0  0  0
 37 38  1  0  0  0
 38 33  1  0  0  0
 38 39  2  0  0  0
 33 27  1  0  0  0
 33 34  1  0  0  0
 27 28  1  0  0  0
 27 32  2  0  0  0
 28 29  2  0  0  0
 29 30  1  0  0  0
 30 31  2  0  0  0
 31 26  1  0  0  0
 31 32  1  0  0  0
 26  1  1  0  0  0
  1  2  1  0  0  0
  1  6  2  0  0  0
  2  3  2  0  0  0
  3  4  1  0  0  0
  4  8  1  0  0  0
  4  5  2  0  0  0
  8  9  1  0  0  0
  8 11  1  0  0  0
  9 10  2  0  0  0
  9 12  1  0  0  0
 12 15  1  0  0  0
 12 13  1  0  0  0
 12 14  1  0  0  0
 15 16  2  0  0  0
 15 17  1  0  0  0
 17 19  1  0  0  0
 17 18  1  0  0  0
 19 20  1  0  0  0
 19 25  2  0  0  0
 20 21  2  0  0  0
 21 22  1  0  0  0
 22 23  1  0  0  0
 22 24  2  0  0  0
 24 25  1  0  0  0
 13 14  1  0  0  0
  5  6  1  0  0  0
  6  7  1  0  0  0
 39 40  1  0  0  0
M  END
> <minimizedAffinity>
-9.00693

$$$$
