CHEMBL1983715


 33 36  0  0  0  0  0  0  0  0999 V2000
  -24.4341   -1.6751  -11.2165 N   0  0  0  0  0  0  0  0  0  0  0  0
  -23.9848   -2.3809  -10.6581 H   0  0  0  0  0  0  0  0  0  0  0  0
  -27.5641   -1.7003   -9.4494 C   0  0  0  0  0  0  0  0  0  0  0  0
  -28.4601   -1.3836  -10.4453 C   0  0  0  0  0  0  0  0  0  0  0  0
  -27.9205   -1.1862  -11.6939 C   0  0  0  0  0  0  0  0  0  0  0  0
  -26.6036   -1.2846  -11.9604 N   0  0  0  0  0  0  0  0  0  0  0  0
  -25.7977   -1.5932  -10.9361 C   0  0  0  0  0  0  0  0  0  0  0  0
  -26.2441   -1.7782   -9.6853 N   0  0  0  0  0  0  0  0  0  0  0  0
  -28.5104   -1.8605   -5.6938 C   0  0  0  0  0  0  0  0  0  0  0  0
  -28.6656   -3.0878   -6.1231 N   0  0  0  0  0  0  0  0  0  0  0  0
  -28.3766   -3.1786   -7.4780 C   0  0  0  0  0  0  0  0  0  0  0  0
  -28.5263   -4.5145   -8.1167 C   0  0  0  0  0  0  0  0  0  0  0  0
  -27.9507   -1.9945   -8.0684 C   0  0  0  0  0  0  0  0  0  0  0  0
  -27.9989   -0.7409   -6.8881 S   0  0  0  0  0  0  0  0  0  0  0  0
  -28.6960   -1.4543   -4.4160 N   0  0  0  0  0  0  0  0  0  0  0  0
  -28.2357   -0.5877   -4.1621 H   0  0  0  0  0  0  0  0  0  0  0  0
  -30.1160   -2.7298   -2.9039 C   0  0  0  0  0  0  0  0  0  0  0  0
  -28.6968   -2.4773   -3.3838 C   0  0  0  0  0  0  0  0  0  0  0  0
  -23.6648   -0.9683  -12.1463 C   0  0  0  0  0  0  0  0  0  0  0  0
  -23.0507   -1.5895  -13.2341 C   0  0  0  0  0  0  0  0  0  0  0  0
  -22.1561   -0.9068  -14.0649 C   0  0  0  0  0  0  0  0  0  0  0  0
  -21.8272    0.4314  -13.8440 C   0  0  0  0  0  0  0  0  0  0  0  0
  -22.4753    1.0613  -12.7705 C   0  0  0  0  0  0  0  0  0  0  0  0
  -23.3742    0.3758  -11.9366 C   0  0  0  0  0  0  0  0  0  0  0  0
  -20.9069    1.0948  -14.6288 N   0  0  0  0  0  0  0  0  0  0  0  0
  -19.8901    0.3964  -15.4396 C   0  0  0  0  0  0  0  0  0  0  0  0
  -18.4662    0.8316  -15.0457 C   0  0  0  0  0  0  0  0  0  0  0  0
  -18.3355    2.2974  -15.0208 N   0  0  0  0  0  0  0  0  0  0  0  0
  -17.3581    2.8981  -15.7856 C   0  0  0  0  0  0  0  0  0  0  0  0
  -17.2061    4.3994  -15.7809 C   0  0  0  0  0  0  0  0  0  0  0  0
  -16.5909    2.2383  -16.4942 O   0  0  0  0  0  0  0  0  0  0  0  0
  -19.3337    2.9509  -14.1638 C   0  0  0  0  0  0  0  0  0  0  0  0
  -20.7715    2.5579  -14.5644 C   0  0  0  0  0  0  0  0  0  0  0  0
 17 18  1  0  0  0
 18 15  1  0  0  0
 15  9  1  0  0  0
 15 16  1  0  0  0
  9 10  2  0  0  0
  9 14  1  0  0  0
 10 11  1  0  0  0
 11 12  1  0  0  0
 11 13  2  0  0  0
 13  3  1  0  0  0
 13 14  1  0  0  0
  3  4  1  0  0  0
  3  8  2  0  0  0
  4  5  2  0  0  0
  5  6  1  0  0  0
  6  7  2  0  0  0
  7  1  1  0  0  0
  7  8  1  0  0  0
  1 19  1  0  0  0
  1  2  1  0  0  0
 19 20  1  0  0  0
 19 24  2  0  0  0
 20 21  2  0  0  0
 21 22  1  0  0  0
 22 25  1  0  0  0
 22 23  2  0  0  0
 25 26  1  0  0  0
 25 33  1  0  0  0
 26 27  1  0  0  0
 27 28  1  0  0  0
 28 29  1  0  0  0
 28 32  1  0  0  0
 29 30  1  0  0  0
 29 31  2  0  0  0
 32 33  1  0  0  0
 23 24  1  0  0  0
M  END
> <minimizedAffinity>
-8.65585

$$$$
