CHEMBL3287603


 45 49  0  0  0  0  0  0  0  0999 V2000
  -14.5492   -0.0447  -14.4099 C   0  0  0  0  0  0  0  0  0  0  0  0
  -15.3026   -0.0163  -13.2393 C   0  0  0  0  0  0  0  0  0  0  0  0
  -16.5549    0.5969  -13.2220 C   0  0  0  0  0  0  0  0  0  0  0  0
  -17.0507    1.2567  -14.3456 C   0  0  0  0  0  0  0  0  0  0  0  0
  -16.2661    1.2942  -15.5038 C   0  0  0  0  0  0  0  0  0  0  0  0
  -15.0205    0.6540  -15.5230 C   0  0  0  0  0  0  0  0  0  0  0  0
  -14.2765    0.7234  -16.6378 F   0  0  0  0  0  0  0  0  0  0  0  0
  -18.3147    1.8799  -14.3487 N   0  0  0  0  0  0  0  0  0  0  0  0
  -19.4788    1.3479  -14.8928 C   0  0  0  0  0  0  0  0  0  0  0  0
  -19.6297    0.2497  -15.4123 O   0  0  0  0  0  0  0  0  0  0  0  0
  -18.3869    2.7867  -13.8995 H   0  0  0  0  0  0  0  0  0  0  0  0
  -20.6770    2.2329  -14.7798 C   0  0  0  0  0  0  0  0  0  0  0  0
  -20.9695    3.1179  -16.0016 C   0  0  0  0  0  0  0  0  0  0  0  0
  -20.4896    3.7475  -14.7326 C   0  0  0  0  0  0  0  0  0  0  0  0
  -21.8321    1.6250  -14.0453 C   0  0  0  0  0  0  0  0  0  0  0  0
  -22.6556    2.4086  -13.5680 O   0  0  0  0  0  0  0  0  0  0  0  0
  -21.8746    0.2406  -13.9703 N   0  0  0  0  0  0  0  0  0  0  0  0
  -21.0632   -0.2785  -14.2913 H   0  0  0  0  0  0  0  0  0  0  0  0
  -22.9369   -0.5073  -13.3927 C   0  0  0  0  0  0  0  0  0  0  0  0
  -24.0933   -0.8292  -14.1168 C   0  0  0  0  0  0  0  0  0  0  0  0
  -25.1632   -1.4971  -13.5191 C   0  0  0  0  0  0  0  0  0  0  0  0
  -25.0798   -1.8655  -12.1884 C   0  0  0  0  0  0  0  0  0  0  0  0
  -26.1183   -2.4801  -11.6062 F   0  0  0  0  0  0  0  0  0  0  0  0
  -23.9269   -1.6036  -11.4557 C   0  0  0  0  0  0  0  0  0  0  0  0
  -22.8469   -0.9409  -12.0579 C   0  0  0  0  0  0  0  0  0  0  0  0
  -13.3378   -0.6895  -14.5193 O   0  0  0  0  0  0  0  0  0  0  0  0
  -13.7827   -4.2932  -15.2534 C   0  0  0  0  0  0  0  0  0  0  0  0
  -13.9432   -3.0717  -14.6103 C   0  0  0  0  0  0  0  0  0  0  0  0
  -13.2763   -1.9432  -15.0952 C   0  0  0  0  0  0  0  0  0  0  0  0
  -12.5328   -2.0406  -16.2628 C   0  0  0  0  0  0  0  0  0  0  0  0
  -12.4479   -3.2777  -16.8658 C   0  0  0  0  0  0  0  0  0  0  0  0
  -13.0472   -4.3844  -16.3824 N   0  0  0  0  0  0  0  0  0  0  0  0
  -14.3974   -5.4350  -14.6985 N   0  0  0  0  0  0  0  0  0  0  0  0
  -15.3836   -5.5243  -14.8958 H   0  0  0  0  0  0  0  0  0  0  0  0
  -12.7901   -6.4810  -11.4967 C   0  0  0  0  0  0  0  0  0  0  0  0
  -13.1894   -7.8223  -11.4323 C   0  0  0  0  0  0  0  0  0  0  0  0
  -13.9539   -8.3778  -12.4510 C   0  0  0  0  0  0  0  0  0  0  0  0
  -14.3305   -7.5998  -13.5400 C   0  0  0  0  0  0  0  0  0  0  0  0
  -13.9529   -6.2588  -13.6442 C   0  0  0  0  0  0  0  0  0  0  0  0
  -13.1802   -5.7079  -12.6077 C   0  0  0  0  0  0  0  0  0  0  0  0
  -12.0089   -5.8804  -10.3569 C   0  0  0  0  0  0  0  0  0  0  0  0
  -12.3562   -5.0741   -7.7311 C   0  0  0  0  0  0  0  0  0  0  0  0
  -13.0480   -4.8258   -9.3497 S   0  0  0  0  0  0  0  0  0  0  0  0
  -14.3919   -5.3708   -9.3186 O   0  0  0  0  0  0  0  0  0  0  0  0
  -12.8049   -3.4371   -9.6940 O   0  0  0  0  0  0  0  0  0  0  0  0
 42 43  1  0  0  0
 43 44  2  0  0  0
 43 45  2  0  0  0
 43 41  1  0  0  0
 41 35  1  0  0  0
 35 36  1  0  0  0
 35 40  2  0  0  0
 36 37  2  0  0  0
 37 38  1  0  0  0
 38 39  2  0  0  0
 39 33  1  0  0  0
 39 40  1  0  0  0
 33 27  1  0  0  0
 33 34  1  0  0  0
 27 28  1  0  0  0
 27 32  2  0  0  0
 28 29  2  0  0  0
 29 26  1  0  0  0
 29 30  1  0  0  0
 26  1  1  0  0  0
  1  2  1  0  0  0
  1  6  2  0  0  0
  2  3  2  0  0  0
  3  4  1  0  0  0
  4  8  1  0  0  0
  4  5  2  0  0  0
  8  9  1  0  0  0
  8 11  1  0  0  0
  9 10  2  0  0  0
  9 12  1  0  0  0
 12 15  1  0  0  0
 12 13  1  0  0  0
 12 14  1  0  0  0
 15 16  2  0  0  0
 15 17  1  0  0  0
 17 19  1  0  0  0
 17 18  1  0  0  0
 19 20  1  0  0  0
 19 25  2  0  0  0
 20 21  2  0  0  0
 21 22  1  0  0  0
 22 23  1  0  0  0
 22 24  2  0  0  0
 24 25  1  0  0  0
 13 14  1  0  0  0
  5  6  1  0  0  0
  6  7  1  0  0  0
 30 31  2  0  0  0
 31 32  1  0  0  0
M  END
> <minimizedAffinity>
-9.91994

$$$$
