CHEMBL3971864


 32 35  0  0  0  0  0  0  0  0999 V2000
  -28.4026  -10.3022   -4.3761 C   0  0  0  0  0  0  0  0  0  0  0  0
  -29.0856   -9.4244   -5.2244 C   0  0  0  0  0  0  0  0  0  0  0  0
  -28.6400   -9.1961   -6.5477 C   0  0  0  0  0  0  0  0  0  0  0  0
  -29.2782   -8.3811   -7.4921 C   0  0  0  0  0  0  0  0  0  0  0  0
  -28.8306   -8.2647   -8.7577 N   0  0  0  0  0  0  0  0  0  0  0  0
  -27.7361   -8.9505   -9.0829 C   0  0  0  0  0  0  0  0  0  0  0  0
  -27.0402   -9.7339   -8.2594 N   0  0  0  0  0  0  0  0  0  0  0  0
  -27.5006   -9.8504   -7.0145 C   0  0  0  0  0  0  0  0  0  0  0  0
  -26.7960  -10.6546   -6.1407 C   0  0  0  0  0  0  0  0  0  0  0  0
  -27.1864  -10.8507   -4.8067 C   0  0  0  0  0  0  0  0  0  0  0  0
  -29.8012  -11.7251   -3.0968 C   0  0  0  0  0  0  0  0  0  0  0  0
  -28.8741  -10.6354   -3.1338 O   0  0  0  0  0  0  0  0  0  0  0  0
  -30.4427   -7.6566   -7.1181 N   0  0  0  0  0  0  0  0  0  0  0  0
  -31.1002   -8.2918   -6.6764 H   0  0  0  0  0  0  0  0  0  0  0  0
  -30.3927   -6.3883   -6.5038 C   0  0  0  0  0  0  0  0  0  0  0  0
  -29.6536   -5.3506   -7.0891 C   0  0  0  0  0  0  0  0  0  0  0  0
  -29.5157   -4.1193   -6.4511 C   0  0  0  0  0  0  0  0  0  0  0  0
  -30.1281   -3.9051   -5.2165 C   0  0  0  0  0  0  0  0  0  0  0  0
  -29.8694   -2.3805   -4.4485 Cl  0  0  0  0  0  0  0  0  0  0  0  0
  -30.9055   -4.9182   -4.6430 C   0  0  0  0  0  0  0  0  0  0  0  0
  -31.6987   -4.7211   -3.1195 Cl  0  0  0  0  0  0  0  0  0  0  0  0
  -31.0446   -6.1522   -5.2904 C   0  0  0  0  0  0  0  0  0  0  0  0
  -26.4159  -11.5659   -3.9076 O   0  0  0  0  0  0  0  0  0  0  0  0
  -25.4112  -10.7636   -3.2535 C   0  0  0  0  0  0  0  0  0  0  0  0
  -23.9945  -11.0831   -3.5930 C   0  0  0  0  0  0  0  0  0  0  0  0
  -22.9684  -11.4620   -2.7598 C   0  0  0  0  0  0  0  0  0  0  0  0
  -21.5392  -11.6926   -3.6703 S   0  0  0  0  0  0  0  0  0  0  0  0
  -22.3765  -11.2993   -5.1414 C   0  0  0  0  0  0  0  0  0  0  0  0
  -23.6400  -10.9928   -4.9363 N   0  0  0  0  0  0  0  0  0  0  0  0
  -21.8133  -11.3602   -6.3846 N   0  0  0  0  0  0  0  0  0  0  0  0
  -21.1858  -10.2173   -7.0229 C   0  0  0  0  0  0  0  0  0  0  0  0
  -22.1657  -12.4627   -7.2695 C   0  0  0  0  0  0  0  0  0  0  0  0
 11 12  1  0  0  0
 12  1  1  0  0  0
  1  2  1  0  0  0
  1 10  2  0  0  0
  2  3  2  0  0  0
  3  4  1  0  0  0
  3  8  1  0  0  0
  4 13  1  0  0  0
  4  5  2  0  0  0
 13 15  1  0  0  0
 13 14  1  0  0  0
 15 16  1  0  0  0
 15 22  2  0  0  0
 16 17  2  0  0  0
 17 18  1  0  0  0
 18 19  1  0  0  0
 18 20  2  0  0  0
 20 21  1  0  0  0
 20 22  1  0  0  0
  5  6  1  0  0  0
  6  7  2  0  0  0
  7  8  1  0  0  0
  8  9  2  0  0  0
  9 10  1  0  0  0
 10 23  1  0  0  0
 23 24  1  0  0  0
 24 25  1  0  0  0
 25 26  2  0  0  0
 25 29  1  0  0  0
 26 27  1  0  0  0
 27 28  1  0  0  0
 28 30  1  0  0  0
 28 29  2  0  0  0
 30 31  1  0  0  0
 30 32  1  0  0  0
M  END
> <minimizedAffinity>
-7.39410

$$$$
