CHEMBL518803


 27 31  0  0  0  0  0  0  0  0999 V2000
  -27.5027   -2.0248   -9.1280 C   0  0  0  0  0  0  0  0  0  0  0  0
  -28.2274   -3.2198   -9.0321 C   0  0  0  0  0  0  0  0  0  0  0  0
  -28.9245   -3.5352   -7.8661 C   0  0  0  0  0  0  0  0  0  0  0  0
  -28.9044   -2.6835   -6.7555 C   0  0  0  0  0  0  0  0  0  0  0  0
  -28.2171   -1.4717   -6.8591 C   0  0  0  0  0  0  0  0  0  0  0  0
  -27.5071   -1.1549   -8.0259 C   0  0  0  0  0  0  0  0  0  0  0  0
  -23.2203   -0.9491  -13.2682 C   0  0  0  0  0  0  0  0  0  0  0  0
  -24.1860   -1.0506  -14.2667 C   0  0  0  0  0  0  0  0  0  0  0  0
  -25.5276   -1.2739  -13.9455 C   0  0  0  0  0  0  0  0  0  0  0  0
  -25.8709   -1.3943  -12.5897 C   0  0  0  0  0  0  0  0  0  0  0  0
  -27.4088   -1.6819  -11.8879 S   0  0  0  0  0  0  0  0  0  0  0  0
  -26.6983   -1.7082  -10.3172 C   0  0  0  0  0  0  0  0  0  0  0  0
  -25.4109   -1.4337  -10.2857 N   0  0  0  0  0  0  0  0  0  0  0  0
  -24.9234   -1.2907  -11.5713 C   0  0  0  0  0  0  0  0  0  0  0  0
  -23.5778   -1.0643  -11.9211 C   0  0  0  0  0  0  0  0  0  0  0  0
  -29.5967   -3.0040   -5.5680 N   0  0  0  0  0  0  0  0  0  0  0  0
  -30.5508   -2.6642   -5.5869 H   0  0  0  0  0  0  0  0  0  0  0  0
  -29.4807   -4.2411   -4.9045 C   0  0  0  0  0  0  0  0  0  0  0  0
  -28.3746   -5.0063   -5.1150 N   0  0  0  0  0  0  0  0  0  0  0  0
  -28.2868   -6.2160   -4.5397 C   0  0  0  0  0  0  0  0  0  0  0  0
  -29.1851   -6.8116   -3.7444 N   0  0  0  0  0  0  0  0  0  0  0  0
  -30.2482   -6.0232   -3.5349 C   0  0  0  0  0  0  0  0  0  0  0  0
  -31.3290   -6.3760   -2.7764 N   0  0  0  0  0  0  0  0  0  0  0  0
  -32.2391   -5.3505   -2.7625 C   0  0  0  0  0  0  0  0  0  0  0  0
  -31.7297   -4.3251   -3.5340 C   0  0  0  0  0  0  0  0  0  0  0  0
  -30.4687   -4.7514   -4.0442 C   0  0  0  0  0  0  0  0  0  0  0  0
  -31.4210   -7.2718   -2.3197 H   0  0  0  0  0  0  0  0  0  0  0  0
  7  8  1  0  0  0
  7 15  2  0  0  0
  8  9  2  0  0  0
  9 10  1  0  0  0
 10 11  1  0  0  0
 10 14  2  0  0  0
 11 12  1  0  0  0
 12  1  1  0  0  0
 12 13  2  0  0  0
  1  2  1  0  0  0
  1  6  2  0  0  0
  2  3  2  0  0  0
  3  4  1  0  0  0
  4 16  1  0  0  0
  4  5  2  0  0  0
 16 18  1  0  0  0
 16 17  1  0  0  0
 18 19  1  0  0  0
 18 26  2  0  0  0
 19 20  2  0  0  0
 20 21  1  0  0  0
 21 22  2  0  0  0
 22 23  1  0  0  0
 22 26  1  0  0  0
 23 24  1  0  0  0
 23 27  1  0  0  0
 24 25  2  0  0  0
 25 26  1  0  0  0
  5  6  1  0  0  0
 13 14  1  0  0  0
 14 15  1  0  0  0
M  END
> <minimizedAffinity>
-10.02879

$$$$
