CHEMBL3950630


 31 34  0  0  0  0  0  0  0  0999 V2000
  -27.9566   -7.9429   -5.0099 C   0  0  0  0  0  0  0  0  0  0  0  0
  -27.8472   -6.6820   -4.4313 C   0  0  0  0  0  0  0  0  0  0  0  0
  -28.2768   -5.5572   -5.1432 C   0  0  0  0  0  0  0  0  0  0  0  0
  -28.8338   -5.6697   -6.4243 C   0  0  0  0  0  0  0  0  0  0  0  0
  -28.8990   -6.9521   -6.9978 C   0  0  0  0  0  0  0  0  0  0  0  0
  -28.4673   -8.0846   -6.3002 C   0  0  0  0  0  0  0  0  0  0  0  0
  -27.3691   -9.3608   -4.1257 S   0  0  0  0  0  0  0  0  0  0  0  0
  -27.1065  -10.3857   -5.1151 O   0  0  0  0  0  0  0  0  0  0  0  0
  -28.2841   -9.6245   -3.0340 O   0  0  0  0  0  0  0  0  0  0  0  0
  -25.8825   -8.9119   -3.5124 N   0  0  0  0  0  0  0  0  0  0  0  0
  -25.6617   -7.9674   -3.8267 H   0  0  0  0  0  0  0  0  0  0  0  0
  -22.9340  -12.2654   -1.9294 C   0  0  0  0  0  0  0  0  0  0  0  0
  -23.3903  -11.3712   -3.0425 C   0  0  0  0  0  0  0  0  0  0  0  0
  -22.6847  -11.2994   -4.2294 C   0  0  0  0  0  0  0  0  0  0  0  0
  -23.1492  -10.4072   -5.1771 C   0  0  0  0  0  0  0  0  0  0  0  0
  -22.4733  -10.2812   -6.5098 C   0  0  0  0  0  0  0  0  0  0  0  0
  -24.2146   -9.6081   -4.9555 N   0  0  0  0  0  0  0  0  0  0  0  0
  -24.8381   -9.7871   -3.7911 C   0  0  0  0  0  0  0  0  0  0  0  0
  -24.4992  -10.6361   -2.8186 N   0  0  0  0  0  0  0  0  0  0  0  0
  -29.2318   -4.5743   -7.2237 N   0  0  0  0  0  0  0  0  0  0  0  0
  -30.2335   -4.4429   -7.1828 H   0  0  0  0  0  0  0  0  0  0  0  0
  -28.5450   -3.3843   -7.5705 C   0  0  0  0  0  0  0  0  0  0  0  0
  -27.8056   -3.3408   -8.7024 N   0  0  0  0  0  0  0  0  0  0  0  0
  -27.2442   -2.1872   -9.1593 N   0  0  0  0  0  0  0  0  0  0  0  0
  -27.4001   -1.0661   -8.4428 C   0  0  0  0  0  0  0  0  0  0  0  0
  -28.0741   -1.0326   -7.2327 C   0  0  0  0  0  0  0  0  0  0  0  0
  -28.1146    0.1448   -6.4653 C   0  0  0  0  0  0  0  0  0  0  0  0
  -28.8189    0.1859   -5.2655 C   0  0  0  0  0  0  0  0  0  0  0  0
  -29.5370   -0.9284   -4.8527 C   0  0  0  0  0  0  0  0  0  0  0  0
  -29.4973   -2.1063   -5.6074 C   0  0  0  0  0  0  0  0  0  0  0  0
  -28.7210   -2.2078   -6.7926 C   0  0  0  0  0  0  0  0  0  0  0  0
 12 13  1  0  0  0
 13 14  1  0  0  0
 13 19  2  0  0  0
 14 15  2  0  0  0
 15 16  1  0  0  0
 15 17  1  0  0  0
 17 18  2  0  0  0
 18 10  1  0  0  0
 18 19  1  0  0  0
 10  7  1  0  0  0
 10 11  1  0  0  0
  7  8  2  0  0  0
  7  9  2  0  0  0
  7  1  1  0  0  0
  1  2  1  0  0  0
  1  6  2  0  0  0
  2  3  2  0  0  0
  3  4  1  0  0  0
  4 20  1  0  0  0
  4  5  2  0  0  0
 20 22  1  0  0  0
 20 21  1  0  0  0
 22 23  1  0  0  0
 22 31  2  0  0  0
 23 24  2  0  0  0
 24 25  1  0  0  0
 25 26  2  0  0  0
 26 27  1  0  0  0
 26 31  1  0  0  0
 27 28  2  0  0  0
 28 29  1  0  0  0
 29 30  2  0  0  0
 30 31  1  0  0  0
  5  6  1  0  0  0
M  END
> <minimizedAffinity>
-8.96600

$$$$
