CHEMBL1979577


 39 42  0  0  0  0  0  0  0  0999 V2000
  -21.5278    0.0577  -14.4076 C   0  0  0  0  0  0  0  0  0  0  0  0
  -20.5013   -0.7633  -14.8391 C   0  0  0  0  0  0  0  0  0  0  0  0
  -19.1353    0.0735  -15.3848 S   0  0  0  0  0  0  0  0  0  0  0  0
  -19.8490    1.6095  -15.0655 C   0  0  0  0  0  0  0  0  0  0  0  0
  -19.2639    2.8707  -15.2817 C   0  0  0  0  0  0  0  0  0  0  0  0
  -20.0247    3.9651  -14.9404 C   0  0  0  0  0  0  0  0  0  0  0  0
  -21.2620    3.8917  -14.4218 N   0  0  0  0  0  0  0  0  0  0  0  0
  -21.8365    2.6894  -14.2036 C   0  0  0  0  0  0  0  0  0  0  0  0
  -23.1002    2.7726  -13.6367 N   0  0  0  0  0  0  0  0  0  0  0  0
  -21.1501    1.4795  -14.5298 C   0  0  0  0  0  0  0  0  0  0  0  0
  -23.2801    3.7187  -13.3225 H   0  0  0  0  0  0  0  0  0  0  0  0
  -23.2897    2.0516  -12.9526 H   0  0  0  0  0  0  0  0  0  0  0  0
  -25.1533   -1.5787  -12.7286 C   0  0  0  0  0  0  0  0  0  0  0  0
  -23.9293   -1.7268  -12.0736 C   0  0  0  0  0  0  0  0  0  0  0  0
  -22.7518   -1.2107  -12.6303 C   0  0  0  0  0  0  0  0  0  0  0  0
  -22.7617   -0.5624  -13.8750 C   0  0  0  0  0  0  0  0  0  0  0  0
  -23.9806   -0.5220  -14.5654 C   0  0  0  0  0  0  0  0  0  0  0  0
  -25.1748   -0.9881  -13.9882 C   0  0  0  0  0  0  0  0  0  0  0  0
  -27.6855   -2.3295  -10.2223 N   0  0  0  0  0  0  0  0  0  0  0  0
  -26.4513   -1.9344  -10.7166 C   0  0  0  0  0  0  0  0  0  0  0  0
  -25.5118   -1.5455  -10.0340 O   0  0  0  0  0  0  0  0  0  0  0  0
  -26.3700   -1.9798  -12.1093 N   0  0  0  0  0  0  0  0  0  0  0  0
  -28.3396   -2.7516  -10.8722 H   0  0  0  0  0  0  0  0  0  0  0  0
  -27.2199   -1.7319  -12.5898 H   0  0  0  0  0  0  0  0  0  0  0  0
  -27.9528    0.0916   -5.8688 C   0  0  0  0  0  0  0  0  0  0  0  0
  -28.2016   -1.1271   -6.7148 C   0  0  0  0  0  0  0  0  0  0  0  0
  -28.8185   -2.2471   -6.1309 C   0  0  0  0  0  0  0  0  0  0  0  0
  -29.0598   -3.3753   -6.8817 C   0  0  0  0  0  0  0  0  0  0  0  0
  -28.6833   -3.4124   -8.2325 C   0  0  0  0  0  0  0  0  0  0  0  0
  -28.0648   -2.3156   -8.8564 C   0  0  0  0  0  0  0  0  0  0  0  0
  -27.8275   -1.1720   -8.0764 C   0  0  0  0  0  0  0  0  0  0  0  0
  -17.9507    3.0078  -15.8342 C   0  0  0  0  0  0  0  0  0  0  0  0
  -16.7494    3.1340  -16.3248 C   0  0  0  0  0  0  0  0  0  0  0  0
  -15.3487    3.2811  -16.8968 C   0  0  0  0  0  0  0  0  0  0  0  0
  -14.7857    1.8964  -17.2273 C   0  0  0  0  0  0  0  0  0  0  0  0
  -15.4004    4.1524  -18.1543 C   0  0  0  0  0  0  0  0  0  0  0  0
  -14.4986    3.9241  -15.8967 N   0  0  0  0  0  0  0  0  0  0  0  0
  -14.5025    3.3623  -15.0465 H   0  0  0  0  0  0  0  0  0  0  0  0
  -14.9033    4.8240  -15.6432 H   0  0  0  0  0  0  0  0  0  0  0  0
 25 26  1  0  0  0
 26 27  1  0  0  0
 26 31  2  0  0  0
 27 28  2  0  0  0
 28 29  1  0  0  0
 29 30  2  0  0  0
 30 19  1  0  0  0
 30 31  1  0  0  0
 19 20  1  0  0  0
 19 23  1  0  0  0
 20 21  2  0  0  0
 20 22  1  0  0  0
 22 13  1  0  0  0
 22 24  1  0  0  0
 13 14  1  0  0  0
 13 18  2  0  0  0
 14 15  2  0  0  0
 15 16  1  0  0  0
 16  1  1  0  0  0
 16 17  2  0  0  0
  1  2  2  0  0  0
  1 10  1  0  0  0
  2  3  1  0  0  0
  3  4  1  0  0  0
  4  5  1  0  0  0
  4 10  2  0  0  0
  5 32  1  0  0  0
  5  6  2  0  0  0
 32 33  3  0  0  0
 33 34  1  0  0  0
 34 35  1  0  0  0
 34 36  1  0  0  0
 34 37  1  0  0  0
 37 38  1  0  0  0
 37 39  1  0  0  0
  6  7  1  0  0  0
  7  8  2  0  0  0
  8  9  1  0  0  0
  8 10  1  0  0  0
  9 11  1  0  0  0
  9 12  1  0  0  0
 17 18  1  0  0  0
M  END
> <minimizedAffinity>
-10.26309

$$$$
