CHEMBL3968818


 37 41  0  0  0  0  0  0  0  0999 V2000
  -28.5651   -9.9428   -5.6148 N   0  0  0  0  0  0  0  0  0  0  0  0
  -28.5575   -8.5246   -5.1977 C   0  0  0  0  0  0  0  0  0  0  0  0
  -29.0648   -8.3009   -3.9135 C   0  0  0  0  0  0  0  0  0  0  0  0
  -29.4683   -7.0895   -3.4837 C   0  0  0  0  0  0  0  0  0  0  0  0
  -29.3586   -5.9949   -4.2729 C   0  0  0  0  0  0  0  0  0  0  0  0
  -29.9412   -4.9107   -3.7888 N   0  0  0  0  0  0  0  0  0  0  0  0
  -29.8970   -3.7462   -4.3958 C   0  0  0  0  0  0  0  0  0  0  0  0
  -29.1302   -3.5595   -5.5486 C   0  0  0  0  0  0  0  0  0  0  0  0
  -28.5866   -4.7207   -6.1539 N   0  0  0  0  0  0  0  0  0  0  0  0
  -28.7247   -5.9904   -5.5332 C   0  0  0  0  0  0  0  0  0  0  0  0
  -28.3141   -7.3213   -6.0412 C   0  0  0  0  0  0  0  0  0  0  0  0
  -28.9097   -2.0462   -5.8371 C   0  0  0  0  0  0  0  0  0  0  0  0
  -27.8478   -1.5991   -6.6656 C   0  0  0  0  0  0  0  0  0  0  0  0
  -27.9242   -0.2948   -6.8854 N   0  0  0  0  0  0  0  0  0  0  0  0
  -28.9695    0.1615   -6.2484 N   0  0  0  0  0  0  0  0  0  0  0  0
  -29.3530    1.5685   -6.3952 C   0  0  0  0  0  0  0  0  0  0  0  0
  -29.5997   -0.8474   -5.5653 C   0  0  0  0  0  0  0  0  0  0  0  0
  -31.5460  -11.2774   -7.5794 C   0  0  0  0  0  0  0  0  0  0  0  0
  -30.9474  -11.3656   -8.8536 C   0  0  0  0  0  0  0  0  0  0  0  0
  -29.6018  -11.0661   -9.0296 C   0  0  0  0  0  0  0  0  0  0  0  0
  -28.8414  -10.6704   -7.9253 C   0  0  0  0  0  0  0  0  0  0  0  0
  -29.3854  -10.5360   -6.6473 C   0  0  0  0  0  0  0  0  0  0  0  0
  -30.7554  -10.8614   -6.4697 C   0  0  0  0  0  0  0  0  0  0  0  0
  -33.4166  -12.1932   -6.2982 C   0  0  0  0  0  0  0  0  0  0  0  0
  -32.8705  -11.5582   -7.4070 O   0  0  0  0  0  0  0  0  0  0  0  0
  -29.0671  -11.1377  -10.2767 O   0  0  0  0  0  0  0  0  0  0  0  0
  -27.9675  -10.4187  -10.7059 C   0  0  0  0  0  0  0  0  0  0  0  0
  -27.3528  -10.7154   -5.1392 C   0  0  0  0  0  0  0  0  0  0  0  0
  -25.8671  -10.3623   -5.4635 C   0  0  0  0  0  0  0  0  0  0  0  0
  -25.0791  -11.2076   -6.5087 C   0  0  0  0  0  0  0  0  0  0  0  0
  -23.8466  -11.7562   -5.8761 N   0  0  0  0  0  0  0  0  0  0  0  0
  -23.7625  -11.6473   -4.4025 C   0  0  0  0  0  0  0  0  0  0  0  0
  -22.2841  -11.4517   -4.0458 C   0  0  0  0  0  0  0  0  0  0  0  0
  -21.5739  -11.9316   -5.2859 C   0  0  0  0  0  0  0  0  0  0  0  0
  -22.5010  -11.4388   -6.4069 C   0  0  0  0  0  0  0  0  0  0  0  0
  -22.1756  -12.2301   -7.6822 C   0  0  0  0  0  0  0  0  0  0  0  0
  -22.3175   -9.9227   -6.6787 C   0  0  0  0  0  0  0  0  0  0  0  0
 24 25  1  0  0  0
 25 18  1  0  0  0
 18 19  1  0  0  0
 18 23  2  0  0  0
 19 20  2  0  0  0
 20 26  1  0  0  0
 20 21  1  0  0  0
 26 27  1  0  0  0
 21 22  2  0  0  0
 22  1  1  0  0  0
 22 23  1  0  0  0
  1 28  1  0  0  0
  1  2  1  0  0  0
 28 29  1  0  0  0
 29 30  1  0  0  0
 30 31  1  0  0  0
 31 32  1  0  0  0
 31 35  1  0  0  0
 32 33  1  0  0  0
 33 34  1  0  0  0
 34 35  1  0  0  0
 35 36  1  0  0  0
 35 37  1  0  0  0
  2  3  1  0  0  0
  2 11  2  0  0  0
  3  4  2  0  0  0
  4  5  1  0  0  0
  5  6  1  0  0  0
  5 10  2  0  0  0
  6  7  2  0  0  0
  7  8  1  0  0  0
  8 12  1  0  0  0
  8  9  2  0  0  0
 12 13  1  0  0  0
 12 17  2  0  0  0
 13 14  2  0  0  0
 14 15  1  0  0  0
 15 16  1  0  0  0
 15 17  1  0  0  0
  9 10  1  0  0  0
 10 11  1  0  0  0
M  END
> <minimizedAffinity>
-8.04238

$$$$
