CHEMBL3759278


 31 33  0  0  0  0  0  0  0  0999 V2000
  -28.2850   -1.2034   -6.1823 C   0  0  0  0  0  0  0  0  0  0  0  0
  -29.0522   -1.7851   -5.1651 C   0  0  0  0  0  0  0  0  0  0  0  0
  -29.5806   -3.0626   -5.2659 C   0  0  0  0  0  0  0  0  0  0  0  0
  -30.3254   -3.5002   -4.2457 N   0  0  0  0  0  0  0  0  0  0  0  0
  -30.7854   -4.7476   -4.3415 C   0  0  0  0  0  0  0  0  0  0  0  0
  -30.5266   -5.5961   -5.3329 N   0  0  0  0  0  0  0  0  0  0  0  0
  -29.7551   -5.1485   -6.3471 C   0  0  0  0  0  0  0  0  0  0  0  0
  -29.2881   -3.8273   -6.3973 C   0  0  0  0  0  0  0  0  0  0  0  0
  -28.5120   -3.2613   -7.4385 C   0  0  0  0  0  0  0  0  0  0  0  0
  -27.9901   -1.9710   -7.3182 C   0  0  0  0  0  0  0  0  0  0  0  0
  -28.6979    1.1466   -6.4592 C   0  0  0  0  0  0  0  0  0  0  0  0
  -27.8177    0.0766   -6.1323 O   0  0  0  0  0  0  0  0  0  0  0  0
  -29.3192   -6.0905   -7.3105 N   0  0  0  0  0  0  0  0  0  0  0  0
  -28.9483   -5.6408   -8.1422 H   0  0  0  0  0  0  0  0  0  0  0  0
  -30.0156   -7.2933   -7.5906 C   0  0  0  0  0  0  0  0  0  0  0  0
  -31.3321   -7.4560   -7.1239 C   0  0  0  0  0  0  0  0  0  0  0  0
  -32.0923   -8.5734   -7.4781 C   0  0  0  0  0  0  0  0  0  0  0  0
  -31.5343   -9.5542   -8.2879 C   0  0  0  0  0  0  0  0  0  0  0  0
  -30.2092   -9.4424   -8.7126 C   0  0  0  0  0  0  0  0  0  0  0  0
  -29.4506   -8.3229   -8.3539 C   0  0  0  0  0  0  0  0  0  0  0  0
  -27.8135   -8.2222   -8.9000 Cl  0  0  0  0  0  0  0  0  0  0  0  0
  -27.2609   -1.5469   -8.4010 O   0  0  0  0  0  0  0  0  0  0  0  0
  -27.4671   -2.3112   -9.5953 C   0  0  0  0  0  0  0  0  0  0  0  0
  -27.6241   -1.3589  -10.7822 C   0  0  0  0  0  0  0  0  0  0  0  0
  -26.7147   -1.7539  -11.9429 C   0  0  0  0  0  0  0  0  0  0  0  0
  -25.3033   -1.2234  -11.7998 C   0  0  0  0  0  0  0  0  0  0  0  0
  -24.9887   -0.0402  -11.8700 O   0  0  0  0  0  0  0  0  0  0  0  0
  -24.3819   -2.2200  -11.5595 N   0  0  0  0  0  0  0  0  0  0  0  0
  -23.0304   -1.8070  -11.5136 O   0  0  0  0  0  0  0  0  0  0  0  0
  -24.5519   -3.1920  -11.7858 H   0  0  0  0  0  0  0  0  0  0  0  0
  -23.1030   -0.8325  -11.6118 H   0  0  0  0  0  0  0  0  0  0  0  0
 11 12  1  0  0  0
 12  1  1  0  0  0
  1  2  1  0  0  0
  1 10  2  0  0  0
  2  3  2  0  0  0
  3  4  1  0  0  0
  3  8  1  0  0  0
  4  5  2  0  0  0
  5  6  1  0  0  0
  6  7  2  0  0  0
  7 13  1  0  0  0
  7  8  1  0  0  0
 13 15  1  0  0  0
 13 14  1  0  0  0
 15 16  1  0  0  0
 15 20  2  0  0  0
 16 17  2  0  0  0
 17 18  1  0  0  0
 18 19  2  0  0  0
 19 20  1  0  0  0
 20 21  1  0  0  0
  8  9  2  0  0  0
  9 10  1  0  0  0
 10 22  1  0  0  0
 22 23  1  0  0  0
 23 24  1  0  0  0
 24 25  1  0  0  0
 25 26  1  0  0  0
 26 27  2  0  0  0
 26 28  1  0  0  0
 28 29  1  0  0  0
 28 30  1  0  0  0
 29 31  1  0  0  0
M  END
> <minimizedAffinity>
-8.98917

$$$$
