CHEMBL390186


 30 33  0  0  0  0  0  0  0  0999 V2000
  -14.6087    0.9906  -14.8959 C   0  0  0  0  0  0  0  0  0  0  0  0
  -14.8362    2.0924  -15.6858 C   0  0  0  0  0  0  0  0  0  0  0  0
  -16.0614    2.5497  -16.0119 N   0  0  0  0  0  0  0  0  0  0  0  0
  -17.1172    1.8886  -15.5146 C   0  0  0  0  0  0  0  0  0  0  0  0
  -16.9942    0.7894  -14.7481 N   0  0  0  0  0  0  0  0  0  0  0  0
  -15.7443    0.3558  -14.4347 C   0  0  0  0  0  0  0  0  0  0  0  0
  -15.7508   -0.8369  -13.5724 C   0  0  0  0  0  0  0  0  0  0  0  0
  -15.5352   -1.0237  -12.2148 C   0  0  0  0  0  0  0  0  0  0  0  0
  -15.6397   -2.4131  -11.9160 C   0  0  0  0  0  0  0  0  0  0  0  0
  -15.5072   -3.1782  -10.7402 C   0  0  0  0  0  0  0  0  0  0  0  0
  -15.6690   -4.5675  -10.8027 C   0  0  0  0  0  0  0  0  0  0  0  0
  -15.9641   -5.1915  -12.0125 C   0  0  0  0  0  0  0  0  0  0  0  0
  -16.1122   -4.4497  -13.1897 C   0  0  0  0  0  0  0  0  0  0  0  0
  -15.9431   -3.0607  -13.1097 C   0  0  0  0  0  0  0  0  0  0  0  0
  -16.0298   -2.0915  -14.0805 N   0  0  0  0  0  0  0  0  0  0  0  0
  -16.2524   -2.2619  -15.0516 H   0  0  0  0  0  0  0  0  0  0  0  0
  -12.1960    0.2034  -14.4204 N   0  0  0  0  0  0  0  0  0  0  0  0
  -13.2734    0.5787  -14.6397 C   0  0  0  0  0  0  0  0  0  0  0  0
  -18.3531    2.4633  -15.8237 N   0  0  0  0  0  0  0  0  0  0  0  0
  -18.1809    3.4164  -16.1169 H   0  0  0  0  0  0  0  0  0  0  0  0
  -19.6249    2.2187  -15.2834 C   0  0  0  0  0  0  0  0  0  0  0  0
  -20.4221    3.3004  -14.8748 C   0  0  0  0  0  0  0  0  0  0  0  0
  -21.6699    3.0990  -14.2657 C   0  0  0  0  0  0  0  0  0  0  0  0
  -22.1536    1.8035  -14.0637 C   0  0  0  0  0  0  0  0  0  0  0  0
  -21.3869    0.7253  -14.5169 C   0  0  0  0  0  0  0  0  0  0  0  0
  -20.1445    0.9339  -15.1214 C   0  0  0  0  0  0  0  0  0  0  0  0
  -23.4633    1.5433  -13.3581 C   0  0  0  0  0  0  0  0  0  0  0  0
  -23.5326    0.1906  -12.6511 C   0  0  0  0  0  0  0  0  0  0  0  0
  -24.6486    0.1101  -11.7707 O   0  0  0  0  0  0  0  0  0  0  0  0
  -24.4615    0.7098  -11.0259 H   0  0  0  0  0  0  0  0  0  0  0  0
 17 18  3  0  0  0
 18  1  1  0  0  0
  1  2  1  0  0  0
  1  6  2  0  0  0
  2  3  2  0  0  0
  3  4  1  0  0  0
  4 19  1  0  0  0
  4  5  2  0  0  0
 19 21  1  0  0  0
 19 20  1  0  0  0
 21 22  1  0  0  0
 21 26  2  0  0  0
 22 23  2  0  0  0
 23 24  1  0  0  0
 24 27  1  0  0  0
 24 25  2  0  0  0
 27 28  1  0  0  0
 28 29  1  0  0  0
 29 30  1  0  0  0
 25 26  1  0  0  0
  5  6  1  0  0  0
  6  7  1  0  0  0
  7  8  2  0  0  0
  7 15  1  0  0  0
  8  9  1  0  0  0
  9 10  1  0  0  0
  9 14  2  0  0  0
 10 11  2  0  0  0
 11 12  1  0  0  0
 12 13  2  0  0  0
 13 14  1  0  0  0
 14 15  1  0  0  0
 15 16  1  0  0  0
M  END
> <minimizedAffinity>
-9.09766

$$$$
