CHEMBL3690454


 33 36  0  0  0  0  0  0  0  0999 V2000
  -15.9952    1.2949  -14.5998 C   0  0  0  0  0  0  0  0  0  0  0  0
  -15.6547    2.1334  -15.6716 C   0  0  0  0  0  0  0  0  0  0  0  0
  -16.5910    2.9899  -16.2368 C   0  0  0  0  0  0  0  0  0  0  0  0
  -17.8901    3.0195  -15.7452 C   0  0  0  0  0  0  0  0  0  0  0  0
  -18.2825    2.1767  -14.7009 C   0  0  0  0  0  0  0  0  0  0  0  0
  -17.3234    1.3182  -14.1288 C   0  0  0  0  0  0  0  0  0  0  0  0
  -14.6221   -3.6457  -13.1607 C   0  0  0  0  0  0  0  0  0  0  0  0
  -15.9355   -3.1689  -13.6188 C   0  0  0  0  0  0  0  0  0  0  0  0
  -16.1242   -1.8706  -13.9150 C   0  0  0  0  0  0  0  0  0  0  0  0
  -15.0583   -0.9749  -13.8077 N   0  0  0  0  0  0  0  0  0  0  0  0
  -14.9608    0.3860  -14.0814 C   0  0  0  0  0  0  0  0  0  0  0  0
  -13.6612    0.7050  -13.7009 C   0  0  0  0  0  0  0  0  0  0  0  0
  -12.9635   -0.3771  -13.2557 N   0  0  0  0  0  0  0  0  0  0  0  0
  -13.8063   -1.3782  -13.3458 C   0  0  0  0  0  0  0  0  0  0  0  0
  -13.6115   -2.7529  -13.0432 C   0  0  0  0  0  0  0  0  0  0  0  0
  -13.4826   -9.1050  -11.7956 C   0  0  0  0  0  0  0  0  0  0  0  0
  -13.8048   -7.7060  -12.2119 C   0  0  0  0  0  0  0  0  0  0  0  0
  -14.8554   -7.4266  -13.0809 C   0  0  0  0  0  0  0  0  0  0  0  0
  -15.1290   -6.1054  -13.4265 C   0  0  0  0  0  0  0  0  0  0  0  0
  -14.3537   -5.0816  -12.8820 C   0  0  0  0  0  0  0  0  0  0  0  0
  -13.3070   -5.3366  -12.0597 N   0  0  0  0  0  0  0  0  0  0  0  0
  -13.0611   -6.6297  -11.7433 C   0  0  0  0  0  0  0  0  0  0  0  0
  -19.6116    2.1538  -14.2008 N   0  0  0  0  0  0  0  0  0  0  0  0
  -20.5542    1.1852  -14.4514 C   0  0  0  0  0  0  0  0  0  0  0  0
  -20.4066    0.1629  -15.1108 O   0  0  0  0  0  0  0  0  0  0  0  0
  -21.7844    1.4765  -13.9073 N   0  0  0  0  0  0  0  0  0  0  0  0
  -19.8772    2.9068  -13.5820 H   0  0  0  0  0  0  0  0  0  0  0  0
  -21.7952    2.0269  -13.0611 H   0  0  0  0  0  0  0  0  0  0  0  0
  -22.8623    0.4890  -14.0800 C   0  0  0  0  0  0  0  0  0  0  0  0
  -23.0779   -0.4871  -12.9103 C   0  0  0  0  0  0  0  0  0  0  0  0
  -22.2693   -0.2128  -11.8622 F   0  0  0  0  0  0  0  0  0  0  0  0
  -24.3535   -0.3800  -12.4565 F   0  0  0  0  0  0  0  0  0  0  0  0
  -22.8888   -1.7726  -13.2676 F   0  0  0  0  0  0  0  0  0  0  0  0
 16 17  1  0  0  0
 17 18  1  0  0  0
 17 22  2  0  0  0
 18 19  2  0  0  0
 19 20  1  0  0  0
 20  7  1  0  0  0
 20 21  2  0  0  0
  7  8  1  0  0  0
  7 15  2  0  0  0
  8  9  2  0  0  0
  9 10  1  0  0  0
 10 11  1  0  0  0
 10 14  1  0  0  0
 11  1  1  0  0  0
 11 12  2  0  0  0
  1  2  1  0  0  0
  1  6  2  0  0  0
  2  3  2  0  0  0
  3  4  1  0  0  0
  4  5  2  0  0  0
  5 23  1  0  0  0
  5  6  1  0  0  0
 23 24  1  0  0  0
 23 27  1  0  0  0
 24 25  2  0  0  0
 24 26  1  0  0  0
 26 29  1  0  0  0
 26 28  1  0  0  0
 29 30  1  0  0  0
 30 31  1  0  0  0
 30 32  1  0  0  0
 30 33  1  0  0  0
 12 13  1  0  0  0
 13 14  2  0  0  0
 14 15  1  0  0  0
 21 22  1  0  0  0
M  END
> <minimizedAffinity>
-9.34877

$$$$
