CHEMBL272875


 31 34  0  0  0  0  0  0  0  0999 V2000
  -24.1988  -10.9608   -4.1032 N   0  0  0  0  0  0  0  0  0  0  0  0
  -25.1940   -9.9999   -4.0969 C   0  0  0  0  0  0  0  0  0  0  0  0
  -25.3477   -9.2810   -3.1159 O   0  0  0  0  0  0  0  0  0  0  0  0
  -25.9968   -9.9950   -5.2431 N   0  0  0  0  0  0  0  0  0  0  0  0
  -25.8710  -10.9888   -6.3206 C   0  0  0  0  0  0  0  0  0  0  0  0
  -27.2373  -11.5366   -6.6794 C   0  0  0  0  0  0  0  0  0  0  0  0
  -28.0711  -10.5051   -7.2010 O   0  0  0  0  0  0  0  0  0  0  0  0
  -28.0704   -9.3746   -6.4153 C   0  0  0  0  0  0  0  0  0  0  0  0
  -29.1323   -8.5012   -6.6766 C   0  0  0  0  0  0  0  0  0  0  0  0
  -29.2223   -7.2776   -6.0130 C   0  0  0  0  0  0  0  0  0  0  0  0
  -28.2976   -6.9906   -5.0104 C   0  0  0  0  0  0  0  0  0  0  0  0
  -27.2452   -7.8818   -4.7265 C   0  0  0  0  0  0  0  0  0  0  0  0
  -27.0958   -9.0804   -5.4389 C   0  0  0  0  0  0  0  0  0  0  0  0
  -23.7340  -11.0777   -4.9886 H   0  0  0  0  0  0  0  0  0  0  0  0
  -21.9264  -11.4484   -3.3394 C   0  0  0  0  0  0  0  0  0  0  0  0
  -23.3537  -11.1296   -2.9367 C   0  0  0  0  0  0  0  0  0  0  0  0
  -30.1910   -6.3228   -6.2714 O   0  0  0  0  0  0  0  0  0  0  0  0
  -30.5382   -5.4246   -5.2703 C   0  0  0  0  0  0  0  0  0  0  0  0
  -31.4759   -5.7530   -4.2938 C   0  0  0  0  0  0  0  0  0  0  0  0
  -31.6575   -4.8692   -3.2576 C   0  0  0  0  0  0  0  0  0  0  0  0
  -31.0200   -3.6776   -3.1614 N   0  0  0  0  0  0  0  0  0  0  0  0
  -30.1837   -3.3245   -4.1544 C   0  0  0  0  0  0  0  0  0  0  0  0
  -29.5025   -2.1019   -4.0590 C   0  0  0  0  0  0  0  0  0  0  0  0
  -28.5941   -1.6261   -5.0325 C   0  0  0  0  0  0  0  0  0  0  0  0
  -28.4004   -2.4002   -6.1814 C   0  0  0  0  0  0  0  0  0  0  0  0
  -29.0651   -3.6472   -6.2607 C   0  0  0  0  0  0  0  0  0  0  0  0
  -29.9249   -4.1410   -5.2564 C   0  0  0  0  0  0  0  0  0  0  0  0
  -27.8813   -0.5642   -4.5564 O   0  0  0  0  0  0  0  0  0  0  0  0
  -28.2164    0.7653   -4.9129 C   0  0  0  0  0  0  0  0  0  0  0  0
  -27.6271   -2.2601   -7.2882 O   0  0  0  0  0  0  0  0  0  0  0  0
  -27.9780   -2.7243   -8.5682 C   0  0  0  0  0  0  0  0  0  0  0  0
 15 16  1  0  0  0
 16  1  1  0  0  0
  1  2  1  0  0  0
  1 14  1  0  0  0
  2  3  2  0  0  0
  2  4  1  0  0  0
  4  5  1  0  0  0
  4 13  1  0  0  0
  5  6  1  0  0  0
  6  7  1  0  0  0
  7  8  1  0  0  0
  8  9  1  0  0  0
  8 13  2  0  0  0
  9 10  2  0  0  0
 10 17  1  0  0  0
 10 11  1  0  0  0
 17 18  1  0  0  0
 18 19  1  0  0  0
 18 27  2  0  0  0
 19 20  2  0  0  0
 20 21  1  0  0  0
 21 22  2  0  0  0
 22 23  1  0  0  0
 22 27  1  0  0  0
 23 24  2  0  0  0
 24 28  1  0  0  0
 24 25  1  0  0  0
 28 29  1  0  0  0
 25 30  1  0  0  0
 25 26  2  0  0  0
 30 31  1  0  0  0
 26 27  1  0  0  0
 11 12  2  0  0  0
 12 13  1  0  0  0
M  END
> <minimizedAffinity>
-8.44166

$$$$
