CHEMBL3671563


 39 42  0  0  0  0  0  0  0  0999 V2000
  -28.9374   -8.8505   -5.2564 C   0  0  0  0  0  0  0  0  0  0  0  0
  -28.3077  -10.0443   -5.6080 C   0  0  0  0  0  0  0  0  0  0  0  0
  -26.9474  -10.2477   -5.3489 C   0  0  0  0  0  0  0  0  0  0  0  0
  -26.2068  -11.3411   -5.8281 C   0  0  0  0  0  0  0  0  0  0  0  0
  -24.8976  -11.4778   -5.5562 N   0  0  0  0  0  0  0  0  0  0  0  0
  -24.3148  -10.5066   -4.8326 C   0  0  0  0  0  0  0  0  0  0  0  0
  -24.9154   -9.4069   -4.3803 N   0  0  0  0  0  0  0  0  0  0  0  0
  -26.2208   -9.2718   -4.6504 C   0  0  0  0  0  0  0  0  0  0  0  0
  -26.8791   -8.1179   -4.2384 C   0  0  0  0  0  0  0  0  0  0  0  0
  -28.2405   -7.8938   -4.4993 C   0  0  0  0  0  0  0  0  0  0  0  0
  -30.3932   -7.8799   -6.9438 C   0  0  0  0  0  0  0  0  0  0  0  0
  -29.4981   -7.3178   -7.5640 O   0  0  0  0  0  0  0  0  0  0  0  0
  -30.2240   -8.6341   -5.7971 N   0  0  0  0  0  0  0  0  0  0  0  0
  -30.9454   -9.2937   -5.5352 H   0  0  0  0  0  0  0  0  0  0  0  0
  -32.6195   -8.8287   -7.2844 C   0  0  0  0  0  0  0  0  0  0  0  0
  -31.8154   -7.7599   -7.3588 C   0  0  0  0  0  0  0  0  0  0  0  0
  -26.8097  -12.2750   -6.7174 N   0  0  0  0  0  0  0  0  0  0  0  0
  -26.4142  -13.2065   -6.6359 H   0  0  0  0  0  0  0  0  0  0  0  0
  -27.2338  -11.9590   -8.0293 C   0  0  0  0  0  0  0  0  0  0  0  0
  -28.5820  -12.1009   -8.3879 C   0  0  0  0  0  0  0  0  0  0  0  0
  -29.0577  -11.6156   -9.6054 C   0  0  0  0  0  0  0  0  0  0  0  0
  -28.1760  -11.0026  -10.4906 C   0  0  0  0  0  0  0  0  0  0  0  0
  -28.8495  -10.2045  -12.0661 Br  0  0  0  0  0  0  0  0  0  0  0  0
  -26.8150  -10.9358  -10.2012 C   0  0  0  0  0  0  0  0  0  0  0  0
  -26.3549  -11.4219   -8.9775 C   0  0  0  0  0  0  0  0  0  0  0  0
  -25.0471  -11.3202   -8.6899 F   0  0  0  0  0  0  0  0  0  0  0  0
  -28.7119   -6.6937   -4.0079 O   0  0  0  0  0  0  0  0  0  0  0  0
  -29.9930   -6.7734   -3.3839 C   0  0  0  0  0  0  0  0  0  0  0  0
  -30.9630   -5.6804   -3.8467 C   0  0  0  0  0  0  0  0  0  0  0  0
  -30.3187   -4.6924   -4.7153 N   0  0  0  0  0  0  0  0  0  0  0  0
  -30.0586   -3.4159   -4.2828 C   0  0  0  0  0  0  0  0  0  0  0  0
  -30.3400   -3.0507   -3.1439 O   0  0  0  0  0  0  0  0  0  0  0  0
  -29.5357   -2.5645   -5.2158 N   0  0  0  0  0  0  0  0  0  0  0  0
  -29.2823   -2.8462   -6.6319 C   0  0  0  0  0  0  0  0  0  0  0  0
  -27.9442   -2.2329   -7.0519 C   0  0  0  0  0  0  0  0  0  0  0  0
  -27.9135   -0.8228   -6.7833 O   0  0  0  0  0  0  0  0  0  0  0  0
  -28.0998   -0.5658   -5.3810 C   0  0  0  0  0  0  0  0  0  0  0  0
  -29.4311   -1.1365   -4.8886 C   0  0  0  0  0  0  0  0  0  0  0  0
  -29.6345   -5.0727   -5.3458 H   0  0  0  0  0  0  0  0  0  0  0  0
 15 16  2  0  0  0
 16 11  1  0  0  0
 11 12  2  0  0  0
 11 13  1  0  0  0
 13  1  1  0  0  0
 13 14  1  0  0  0
  1  2  1  0  0  0
  1 10  2  0  0  0
  2  3  2  0  0  0
  3  4  1  0  0  0
  3  8  1  0  0  0
  4 17  1  0  0  0
  4  5  2  0  0  0
 17 19  1  0  0  0
 17 18  1  0  0  0
 19 20  1  0  0  0
 19 25  2  0  0  0
 20 21  2  0  0  0
 21 22  1  0  0  0
 22 23  1  0  0  0
 22 24  2  0  0  0
 24 25  1  0  0  0
 25 26  1  0  0  0
  5  6  1  0  0  0
  6  7  2  0  0  0
  7  8  1  0  0  0
  8  9  2  0  0  0
  9 10  1  0  0  0
 10 27  1  0  0  0
 27 28  1  0  0  0
 28 29  1  0  0  0
 29 30  1  0  0  0
 30 31  1  0  0  0
 30 39  1  0  0  0
 31 32  2  0  0  0
 31 33  1  0  0  0
 33 34  1  0  0  0
 33 38  1  0  0  0
 34 35  1  0  0  0
 35 36  1  0  0  0
 36 37  1  0  0  0
 37 38  1  0  0  0
M  END
> <minimizedAffinity>
-8.25950

$$$$
