CHEMBL495089


 35 39  0  0  0  0  0  0  0  0999 V2000
  -29.3831   -4.3669   -4.8761 C   0  0  0  0  0  0  0  0  0  0  0  0
  -30.1282   -4.3622   -3.7548 C   0  0  0  0  0  0  0  0  0  0  0  0
  -30.2882   -3.1013   -3.1338 C   0  0  0  0  0  0  0  0  0  0  0  0
  -29.7610   -1.7897   -3.7162 C   0  0  0  0  0  0  0  0  0  0  0  0
  -29.0831   -1.7859   -4.9742 C   0  0  0  0  0  0  0  0  0  0  0  0
  -29.0351   -3.1275   -5.3442 C   0  0  0  0  0  0  0  0  0  0  0  0
  -28.7943   -2.9199   -6.6751 C   0  0  0  0  0  0  0  0  0  0  0  0
  -28.6531   -3.1191   -8.0255 C   0  0  0  0  0  0  0  0  0  0  0  0
  -28.3272   -1.6365   -8.2786 N   0  0  0  0  0  0  0  0  0  0  0  0
  -28.3315   -0.8363   -6.4943 C   0  0  0  0  0  0  0  0  0  0  0  0
  -28.0275   -5.8512   -6.0210 O   0  0  0  0  0  0  0  0  0  0  0  0
  -29.1745   -5.4668   -5.8273 C   0  0  0  0  0  0  0  0  0  0  0  0
  -30.3411   -6.0491   -6.3162 N   0  0  0  0  0  0  0  0  0  0  0  0
  -31.2440   -5.7239   -5.9760 H   0  0  0  0  0  0  0  0  0  0  0  0
  -30.3444   -7.1984   -7.1237 C   0  0  0  0  0  0  0  0  0  0  0  0
  -31.5205   -7.9117   -7.3613 C   0  0  0  0  0  0  0  0  0  0  0  0
  -31.4872   -9.1004   -8.0752 C   0  0  0  0  0  0  0  0  0  0  0  0
  -30.3048   -9.5052   -8.6851 C   0  0  0  0  0  0  0  0  0  0  0  0
  -29.1499   -8.7210   -8.5750 C   0  0  0  0  0  0  0  0  0  0  0  0
  -29.1622   -7.5885   -7.7457 C   0  0  0  0  0  0  0  0  0  0  0  0
  -27.9255   -9.0600   -9.3773 C   0  0  0  0  0  0  0  0  0  0  0  0
  -28.2438   -9.5142  -10.6217 F   0  0  0  0  0  0  0  0  0  0  0  0
  -27.1061   -7.9921   -9.5618 F   0  0  0  0  0  0  0  0  0  0  0  0
  -27.1617  -10.0348   -8.8111 F   0  0  0  0  0  0  0  0  0  0  0  0
  -27.3046   -2.2247   -9.7389 C   0  0  0  0  0  0  0  0  0  0  0  0
  -26.7264   -2.0611  -11.5358 C   0  0  0  0  0  0  0  0  0  0  0  0
  -27.6764   -2.1518  -12.8920 C   0  0  0  0  0  0  0  0  0  0  0  0
  -27.2070   -1.8382  -14.1625 C   0  0  0  0  0  0  0  0  0  0  0  0
  -26.0965   -1.5420  -13.6926 N   0  0  0  0  0  0  0  0  0  0  0  0
  -24.9484   -1.2379  -13.2692 C   0  0  0  0  0  0  0  0  0  0  0  0
  -23.9518   -0.8761  -14.1739 C   0  0  0  0  0  0  0  0  0  0  0  0
  -22.7596   -0.5345  -13.6296 C   0  0  0  0  0  0  0  0  0  0  0  0
  -22.7150   -0.5571  -12.2419 C   0  0  0  0  0  0  0  0  0  0  0  0
  -23.8729   -0.9762  -11.4321 C   0  0  0  0  0  0  0  0  0  0  0  0
  -25.1601   -1.4503  -11.9134 C   0  0  0  0  0  0  0  0  0  0  0  0
 11 12  2  0  0  0
 12 13  1  0  0  0
 12  1  1  0  0  0
 13 15  1  0  0  0
 13 14  1  0  0  0
 15 16  1  0  0  0
 15 20  2  0  0  0
 16 17  2  0  0  0
 17 18  1  0  0  0
 18 19  2  0  0  0
 19 21  1  0  0  0
 19 20  1  0  0  0
 21 22  1  0  0  0
 21 23  1  0  0  0
 21 24  1  0  0  0
  1  2  1  0  0  0
  1  6  2  0  0  0
  2  3  2  0  0  0
  3  4  1  0  0  0
  4  5  2  0  0  0
  5  6  1  0  0  0
  5 10  1  0  0  0
  6  7  1  0  0  0
  7  8  1  0  0  0
  8  9  1  0  0  0
  9 25  1  0  0  0
  9 10  1  0  0  0
 25 26  1  0  0  0
 26 27  1  0  0  0
 26 35  2  0  0  0
 27 28  2  0  0  0
 28 29  1  0  0  0
 29 30  2  0  0  0
 30 31  1  0  0  0
 30 35  1  0  0  0
 31 32  2  0  0  0
 32 33  1  0  0  0
 33 34  2  0  0  0
 34 35  1  0  0  0
M  END
> <minimizedAffinity>
-12.48070

$$$$
