CHEMBL3220318


 43 45  0  0  0  0  0  0  0  0999 V2000
  -28.4556   -2.5314   -8.5453 C   0  0  0  0  0  0  0  0  0  0  0  0
  -28.0844   -1.9316   -7.3390 C   0  0  0  0  0  0  0  0  0  0  0  0
  -28.1158   -2.6351   -6.1312 C   0  0  0  0  0  0  0  0  0  0  0  0
  -28.5134   -3.9885   -6.1408 C   0  0  0  0  0  0  0  0  0  0  0  0
  -28.9875   -4.5884   -7.3516 C   0  0  0  0  0  0  0  0  0  0  0  0
  -28.9624   -3.8235   -8.5383 C   0  0  0  0  0  0  0  0  0  0  0  0
  -26.9687   -1.0145  -11.4865 N   0  0  0  0  0  0  0  0  0  0  0  0
  -26.9928   -1.7111  -10.2895 C   0  0  0  0  0  0  0  0  0  0  0  0
  -26.0070   -2.1792   -9.7283 O   0  0  0  0  0  0  0  0  0  0  0  0
  -28.2768   -1.8619   -9.7828 N   0  0  0  0  0  0  0  0  0  0  0  0
  -27.8060   -0.5131  -11.7517 H   0  0  0  0  0  0  0  0  0  0  0  0
  -28.9864   -2.0086  -10.4860 H   0  0  0  0  0  0  0  0  0  0  0  0
  -23.5486   -0.3673  -13.9285 C   0  0  0  0  0  0  0  0  0  0  0  0
  -24.5469   -1.2386  -14.3354 C   0  0  0  0  0  0  0  0  0  0  0  0
  -25.6660   -1.4643  -13.5346 C   0  0  0  0  0  0  0  0  0  0  0  0
  -25.8175   -0.8328  -12.2982 C   0  0  0  0  0  0  0  0  0  0  0  0
  -24.7930    0.0123  -11.8641 C   0  0  0  0  0  0  0  0  0  0  0  0
  -23.6620    0.2395  -12.6733 C   0  0  0  0  0  0  0  0  0  0  0  0
  -22.4322   -0.0698  -14.6707 O   0  0  0  0  0  0  0  0  0  0  0  0
  -21.4916    0.7936  -14.0057 C   0  0  0  0  0  0  0  0  0  0  0  0
  -20.4886    1.3784  -15.0110 C   0  0  0  0  0  0  0  0  0  0  0  0
  -19.1256    1.6063  -14.4732 N   0  0  0  0  0  0  0  0  0  0  0  0
  -16.9644    0.3057  -14.2976 C   0  0  0  0  0  0  0  0  0  0  0  0
  -18.1761    0.6972  -15.1404 C   0  0  0  0  0  0  0  0  0  0  0  0
  -18.6972    3.0146  -14.4699 C   0  0  0  0  0  0  0  0  0  0  0  0
  -17.7898    3.4494  -15.6166 C   0  0  0  0  0  0  0  0  0  0  0  0
  -29.5076   -5.9841   -7.4161 C   0  0  0  0  0  0  0  0  0  0  0  0
  -30.8151   -6.3053   -7.0323 C   0  0  0  0  0  0  0  0  0  0  0  0
  -31.2635   -7.6289   -7.0479 C   0  0  0  0  0  0  0  0  0  0  0  0
  -30.4490   -8.6713   -7.5241 C   0  0  0  0  0  0  0  0  0  0  0  0
  -29.1725   -8.3567   -8.0113 C   0  0  0  0  0  0  0  0  0  0  0  0
  -28.6942   -7.0444   -7.8551 C   0  0  0  0  0  0  0  0  0  0  0  0
  -31.0330  -10.0518   -7.4418 C   0  0  0  0  0  0  0  0  0  0  0  0
  -30.5764  -10.9996   -6.3516 C   0  0  0  0  0  0  0  0  0  0  0  0
  -31.9760  -10.3696   -8.2886 N   0  0  0  0  0  0  0  0  0  0  0  0
  -32.4833  -11.6515   -8.0612 O   0  0  0  0  0  0  0  0  0  0  0  0
  -33.2444  -11.6816   -8.6702 H   0  0  0  0  0  0  0  0  0  0  0  0
  -28.4301   -9.3223   -8.6356 O   0  0  0  0  0  0  0  0  0  0  0  0
  -27.3221   -8.8860   -9.4294 C   0  0  0  0  0  0  0  0  0  0  0  0
  -27.7586   -2.0619   -4.9393 O   0  0  0  0  0  0  0  0  0  0  0  0
  -27.3456   -0.7014   -4.9329 C   0  0  0  0  0  0  0  0  0  0  0  0
  -28.4535   -4.8468   -5.0646 O   0  0  0  0  0  0  0  0  0  0  0  0
  -29.3835   -4.7476   -3.9982 C   0  0  0  0  0  0  0  0  0  0  0  0
 23 24  1  0  0  0
 24 22  1  0  0  0
 22 25  1  0  0  0
 22 21  1  0  0  0
 25 26  1  0  0  0
 21 20  1  0  0  0
 20 19  1  0  0  0
 19 13  1  0  0  0
 13 14  1  0  0  0
 13 18  2  0  0  0
 14 15  2  0  0  0
 15 16  1  0  0  0
 16  7  1  0  0  0
 16 17  2  0  0  0
  7  8  1  0  0  0
  7 11  1  0  0  0
  8  9  2  0  0  0
  8 10  1  0  0  0
 10  1  1  0  0  0
 10 12  1  0  0  0
  1  2  1  0  0  0
  1  6  2  0  0  0
  2  3  2  0  0  0
  3 40  1  0  0  0
  3  4  1  0  0  0
 40 41  1  0  0  0
  4 42  1  0  0  0
  4  5  2  0  0  0
 42 43  1  0  0  0
  5 27  1  0  0  0
  5  6  1  0  0  0
 27 28  1  0  0  0
 27 32  2  0  0  0
 28 29  2  0  0  0
 29 30  1  0  0  0
 30 33  1  0  0  0
 30 31  2  0  0  0
 33 34  1  0  0  0
 33 35  2  0  0  0
 35 36  1  0  0  0
 36 37  1  0  0  0
 31 38  1  0  0  0
 31 32  1  0  0  0
 38 39  1  0  0  0
 17 18  1  0  0  0
M  END
> <minimizedAffinity>
-9.44323

$$$$
