CHEMBL1241581


 28 31  0  0  0  0  0  0  0  0999 V2000
  -30.0076   -6.3227   -6.9346 C   0  0  0  0  0  0  0  0  0  0  0  0
  -29.8085   -5.3014   -7.7890 N   0  0  0  0  0  0  0  0  0  0  0  0
  -29.3147   -4.3069   -7.0196 N   0  0  0  0  0  0  0  0  0  0  0  0
  -29.1446   -4.6710   -5.7124 C   0  0  0  0  0  0  0  0  0  0  0  0
  -28.6536   -3.9079   -4.7175 N   0  0  0  0  0  0  0  0  0  0  0  0
  -28.6100   -4.5851   -3.5597 C   0  0  0  0  0  0  0  0  0  0  0  0
  -28.9666   -5.8629   -3.3310 N   0  0  0  0  0  0  0  0  0  0  0  0
  -29.4472   -6.5932   -4.3587 C   0  0  0  0  0  0  0  0  0  0  0  0
  -29.7652   -7.9123   -4.0683 N   0  0  0  0  0  0  0  0  0  0  0  0
  -29.5656   -5.9888   -5.6181 C   0  0  0  0  0  0  0  0  0  0  0  0
  -29.3785   -8.1808   -3.1709 H   0  0  0  0  0  0  0  0  0  0  0  0
  -29.6077   -8.5668   -4.8242 H   0  0  0  0  0  0  0  0  0  0  0  0
  -30.2747   -9.7009   -8.5851 C   0  0  0  0  0  0  0  0  0  0  0  0
  -29.7740   -8.4647   -8.1613 C   0  0  0  0  0  0  0  0  0  0  0  0
  -30.5723   -7.5849   -7.4178 C   0  0  0  0  0  0  0  0  0  0  0  0
  -31.9026   -7.9325   -7.1630 C   0  0  0  0  0  0  0  0  0  0  0  0
  -32.4110   -9.1610   -7.5919 C   0  0  0  0  0  0  0  0  0  0  0  0
  -31.5975  -10.0701   -8.2718 C   0  0  0  0  0  0  0  0  0  0  0  0
  -32.1707  -11.2358   -8.8107 N   0  0  0  0  0  0  0  0  0  0  0  0
  -32.9301  -11.6234   -8.2635 H   0  0  0  0  0  0  0  0  0  0  0  0
  -31.4577  -11.9166   -9.0643 H   0  0  0  0  0  0  0  0  0  0  0  0
  -29.1386  -10.1928  -10.6026 C   0  0  0  0  0  0  0  0  0  0  0  0
  -29.5447  -10.6191   -9.3056 O   0  0  0  0  0  0  0  0  0  0  0  0
  -29.0198   -3.0136   -7.5985 C   0  0  0  0  0  0  0  0  0  0  0  0
  -27.9797   -3.0564   -8.7211 C   0  0  0  0  0  0  0  0  0  0  0  0
  -27.4225   -1.6370   -8.8048 C   0  0  0  0  0  0  0  0  0  0  0  0
  -27.8288   -0.9295   -7.5128 C   0  0  0  0  0  0  0  0  0  0  0  0
  -28.4247   -2.0056   -6.6145 C   0  0  0  0  0  0  0  0  0  0  0  0
 22 23  1  0  0  0
 23 13  1  0  0  0
 13 14  1  0  0  0
 13 18  2  0  0  0
 14 15  2  0  0  0
 15  1  1  0  0  0
 15 16  1  0  0  0
  1  2  2  0  0  0
  1 10  1  0  0  0
  2  3  1  0  0  0
  3 24  1  0  0  0
  3  4  1  0  0  0
 24 25  1  0  0  0
 24 28  1  0  0  0
 25 26  1  0  0  0
 26 27  1  0  0  0
 27 28  1  0  0  0
  4  5  1  0  0  0
  4 10  2  0  0  0
  5  6  2  0  0  0
  6  7  1  0  0  0
  7  8  2  0  0  0
  8  9  1  0  0  0
  8 10  1  0  0  0
  9 11  1  0  0  0
  9 12  1  0  0  0
 16 17  2  0  0  0
 17 18  1  0  0  0
 18 19  1  0  0  0
 19 20  1  0  0  0
 19 21  1  0  0  0
M  END
> <minimizedAffinity>
-8.48152

$$$$
