CHEMBL1242568


 26 29  0  0  0  0  0  0  0  0999 V2000
  -29.3091   -6.6608   -2.9998 N   0  0  0  0  0  0  0  0  0  0  0  0
  -29.0104   -7.7047   -3.8663 C   0  0  0  0  0  0  0  0  0  0  0  0
  -28.7994   -8.9023   -3.2798 N   0  0  0  0  0  0  0  0  0  0  0  0
  -28.5310   -9.9655   -4.0579 C   0  0  0  0  0  0  0  0  0  0  0  0
  -28.4628  -10.0086   -5.3955 N   0  0  0  0  0  0  0  0  0  0  0  0
  -28.6733   -8.7968   -5.9388 C   0  0  0  0  0  0  0  0  0  0  0  0
  -28.9307   -7.6118   -5.2651 C   0  0  0  0  0  0  0  0  0  0  0  0
  -29.0265   -6.6210   -6.2978 C   0  0  0  0  0  0  0  0  0  0  0  0
  -28.9054   -7.1827   -7.5153 N   0  0  0  0  0  0  0  0  0  0  0  0
  -28.6682   -8.4879   -7.2705 N   0  0  0  0  0  0  0  0  0  0  0  0
  -29.5144   -7.0276   -2.0758 H   0  0  0  0  0  0  0  0  0  0  0  0
  -29.9842   -5.9966   -3.3580 H   0  0  0  0  0  0  0  0  0  0  0  0
  -29.2153   -5.1685   -6.1891 C   0  0  0  0  0  0  0  0  0  0  0  0
  -30.2812   -4.6237   -5.4540 C   0  0  0  0  0  0  0  0  0  0  0  0
  -30.4730   -3.2417   -5.3739 C   0  0  0  0  0  0  0  0  0  0  0  0
  -29.5600   -2.3947   -5.9811 C   0  0  0  0  0  0  0  0  0  0  0  0
  -29.7178   -1.0647   -5.8917 F   0  0  0  0  0  0  0  0  0  0  0  0
  -28.4672   -2.9109   -6.6687 C   0  0  0  0  0  0  0  0  0  0  0  0
  -27.5401   -2.0787   -7.2284 O   0  0  0  0  0  0  0  0  0  0  0  0
  -28.2942   -4.2871   -6.7873 C   0  0  0  0  0  0  0  0  0  0  0  0
  -27.7895   -1.1682   -6.9802 H   0  0  0  0  0  0  0  0  0  0  0  0
  -28.4302   -9.4069   -8.3640 C   0  0  0  0  0  0  0  0  0  0  0  0
  -27.2748   -9.0032   -9.2823 C   0  0  0  0  0  0  0  0  0  0  0  0
  -27.5339   -9.7398  -10.5952 C   0  0  0  0  0  0  0  0  0  0  0  0
  -28.9884  -10.2065  -10.5558 C   0  0  0  0  0  0  0  0  0  0  0  0
  -29.6067   -9.5495   -9.3286 C   0  0  0  0  0  0  0  0  0  0  0  0
  1  2  1  0  0  0
  1 11  1  0  0  0
  1 12  1  0  0  0
  2  3  1  0  0  0
  2  7  2  0  0  0
  3  4  2  0  0  0
  4  5  1  0  0  0
  5  6  2  0  0  0
  6  7  1  0  0  0
  6 10  1  0  0  0
  7  8  1  0  0  0
  8 13  1  0  0  0
  8  9  2  0  0  0
 13 14  1  0  0  0
 13 20  2  0  0  0
 14 15  2  0  0  0
 15 16  1  0  0  0
 16 17  1  0  0  0
 16 18  2  0  0  0
 18 19  1  0  0  0
 18 20  1  0  0  0
 19 21  1  0  0  0
  9 10  1  0  0  0
 10 22  1  0  0  0
 22 23  1  0  0  0
 22 26  1  0  0  0
 23 24  1  0  0  0
 24 25  1  0  0  0
 25 26  1  0  0  0
M  END
> <minimizedAffinity>
-8.08161

$$$$
