CHEMBL3961210


 36 39  0  0  0  0  0  0  0  0999 V2000
  -27.4939   -1.7737   -9.6225 C   0  0  0  0  0  0  0  0  0  0  0  0
  -28.3575   -1.8349  -10.7274 C   0  0  0  0  0  0  0  0  0  0  0  0
  -27.8506   -1.7698  -12.0036 C   0  0  0  0  0  0  0  0  0  0  0  0
  -26.5191   -1.4978  -12.2458 C   0  0  0  0  0  0  0  0  0  0  0  0
  -26.1407   -1.6686  -13.5090 N   0  0  0  0  0  0  0  0  0  0  0  0
  -24.9196   -1.2308  -13.8357 C   0  0  0  0  0  0  0  0  0  0  0  0
  -24.1234   -0.5363  -12.9457 C   0  0  0  0  0  0  0  0  0  0  0  0
  -24.4415   -0.5043  -11.6024 N   0  0  0  0  0  0  0  0  0  0  0  0
  -25.6633   -1.0582  -11.2023 C   0  0  0  0  0  0  0  0  0  0  0  0
  -26.1759   -1.2863   -9.8612 C   0  0  0  0  0  0  0  0  0  0  0  0
  -23.1758    0.3964  -13.5644 C   0  0  0  0  0  0  0  0  0  0  0  0
  -23.0780    1.8032  -13.6509 C   0  0  0  0  0  0  0  0  0  0  0  0
  -21.9243    2.2177  -14.2077 N   0  0  0  0  0  0  0  0  0  0  0  0
  -21.2833    1.0729  -14.5158 N   0  0  0  0  0  0  0  0  0  0  0  0
  -21.9317   -0.0265  -14.0214 C   0  0  0  0  0  0  0  0  0  0  0  0
  -20.2249    1.0555  -15.5140 C   0  0  0  0  0  0  0  0  0  0  0  0
  -18.9289    0.3418  -15.1508 C   0  0  0  0  0  0  0  0  0  0  0  0
  -17.6798    1.5919  -14.8196 S   0  0  0  0  0  0  0  0  0  0  0  0
  -16.6053    0.8818  -13.5882 C   0  0  0  0  0  0  0  0  0  0  0  0
  -16.8933    1.7599  -16.0270 O   0  0  0  0  0  0  0  0  0  0  0  0
  -18.3428    2.7271  -14.2085 O   0  0  0  0  0  0  0  0  0  0  0  0
  -27.9861   -2.4514   -8.4400 N   0  0  0  0  0  0  0  0  0  0  0  0
  -28.7466   -0.1827   -5.5433 C   0  0  0  0  0  0  0  0  0  0  0  0
  -28.5903   -1.0496   -4.4612 C   0  0  0  0  0  0  0  0  0  0  0  0
  -28.1807   -2.3608   -4.6856 C   0  0  0  0  0  0  0  0  0  0  0  0
  -27.9296   -2.8003   -5.9931 C   0  0  0  0  0  0  0  0  0  0  0  0
  -28.0808   -1.9662   -7.1104 C   0  0  0  0  0  0  0  0  0  0  0  0
  -28.5000   -0.6437   -6.8563 C   0  0  0  0  0  0  0  0  0  0  0  0
  -30.4651    1.3957   -6.0403 C   0  0  0  0  0  0  0  0  0  0  0  0
  -29.2023    1.1109   -5.4311 O   0  0  0  0  0  0  0  0  0  0  0  0
  -28.0205   -3.3248   -3.7273 O   0  0  0  0  0  0  0  0  0  0  0  0
  -27.6793   -4.6311   -4.1773 C   0  0  0  0  0  0  0  0  0  0  0  0
  -27.6234   -3.9161   -8.5880 C   0  0  0  0  0  0  0  0  0  0  0  0
  -28.6015   -4.9330   -7.9720 C   0  0  0  0  0  0  0  0  0  0  0  0
  -28.0628   -6.2540   -7.9651 O   0  0  0  0  0  0  0  0  0  0  0  0
  -28.7685   -6.8492   -8.2730 H   0  0  0  0  0  0  0  0  0  0  0  0
 29 30  1  0  0  0
 30 23  1  0  0  0
 23 24  1  0  0  0
 23 28  2  0  0  0
 24 25  2  0  0  0
 25 31  1  0  0  0
 25 26  1  0  0  0
 31 32  1  0  0  0
 26 27  2  0  0  0
 27 22  1  0  0  0
 27 28  1  0  0  0
 22 33  1  0  0  0
 22  1  1  0  0  0
 33 34  1  0  0  0
 34 35  1  0  0  0
 35 36  1  0  0  0
  1  2  1  0  0  0
  1 10  2  0  0  0
  2  3  2  0  0  0
  3  4  1  0  0  0
  4  5  1  0  0  0
  4  9  2  0  0  0
  5  6  2  0  0  0
  6  7  1  0  0  0
  7 11  1  0  0  0
  7  8  2  0  0  0
 11 12  1  0  0  0
 11 15  2  0  0  0
 12 13  2  0  0  0
 13 14  1  0  0  0
 14 16  1  0  0  0
 14 15  1  0  0  0
 16 17  1  0  0  0
 17 18  1  0  0  0
 18 19  1  0  0  0
 18 20  2  0  0  0
 18 21  2  0  0  0
  8  9  1  0  0  0
  9 10  1  0  0  0
M  END
> <minimizedAffinity>
-8.33998

$$$$
