CHEMBL4636935


 38 41  0  0  0  0  0  0  0  0999 V2000
  -22.1643    1.0428  -14.1666 C   0  0  0  0  0  0  0  0  0  0  0  0
  -22.8362    2.0425  -13.6069 N   0  0  0  0  0  0  0  0  0  0  0  0
  -22.3297    3.2530  -13.8025 C   0  0  0  0  0  0  0  0  0  0  0  0
  -21.2427    3.5443  -14.5056 N   0  0  0  0  0  0  0  0  0  0  0  0
  -20.6310    2.4892  -15.0212 C   0  0  0  0  0  0  0  0  0  0  0  0
  -21.0628    1.2289  -14.8789 N   0  0  0  0  0  0  0  0  0  0  0  0
  -22.6209   -0.2782  -14.0036 N   0  0  0  0  0  0  0  0  0  0  0  0
  -22.1928   -0.6610  -13.1593 H   0  0  0  0  0  0  0  0  0  0  0  0
  -24.7528   -1.2533  -13.1740 C   0  0  0  0  0  0  0  0  0  0  0  0
  -26.0605   -1.6994  -13.4388 C   0  0  0  0  0  0  0  0  0  0  0  0
  -26.5926   -1.6072  -14.7245 C   0  0  0  0  0  0  0  0  0  0  0  0
  -25.8324   -1.0535  -15.7448 C   0  0  0  0  0  0  0  0  0  0  0  0
  -24.5318   -0.6195  -15.4836 C   0  0  0  0  0  0  0  0  0  0  0  0
  -23.9450   -0.7348  -14.2070 C   0  0  0  0  0  0  0  0  0  0  0  0
  -24.2327   -1.2027  -11.4666 S   0  0  0  0  0  0  0  0  0  0  0  0
  -24.2382    0.1830  -11.0354 O   0  0  0  0  0  0  0  0  0  0  0  0
  -23.0322   -2.0020  -11.3934 O   0  0  0  0  0  0  0  0  0  0  0  0
  -25.4420   -2.0227  -10.6190 N   0  0  0  0  0  0  0  0  0  0  0  0
  -25.6744   -2.8965  -11.0922 H   0  0  0  0  0  0  0  0  0  0  0  0
  -27.4640   -2.1194   -9.2569 C   0  0  0  0  0  0  0  0  0  0  0  0
  -26.5968   -1.2434  -10.1489 C   0  0  0  0  0  0  0  0  0  0  0  0
  -19.4617    2.7369  -15.7506 N   0  0  0  0  0  0  0  0  0  0  0  0
  -19.4455    3.6663  -16.1475 H   0  0  0  0  0  0  0  0  0  0  0  0
  -18.2204    2.1261  -15.5376 C   0  0  0  0  0  0  0  0  0  0  0  0
  -18.0986    1.0457  -14.6796 C   0  0  0  0  0  0  0  0  0  0  0  0
  -16.8258    0.5830  -14.3313 C   0  0  0  0  0  0  0  0  0  0  0  0
  -15.6299    1.1875  -14.7945 C   0  0  0  0  0  0  0  0  0  0  0  0
  -15.7744    2.2351  -15.7282 C   0  0  0  0  0  0  0  0  0  0  0  0
  -17.0594    2.6360  -16.1246 C   0  0  0  0  0  0  0  0  0  0  0  0
  -14.4308    0.6616  -14.2995 N   0  0  0  0  0  0  0  0  0  0  0  0
  -13.5860    1.4422  -13.3781 C   0  0  0  0  0  0  0  0  0  0  0  0
  -12.1641    0.8177  -13.3253 C   0  0  0  0  0  0  0  0  0  0  0  0
  -12.1793   -0.6151  -12.9427 N   0  0  0  0  0  0  0  0  0  0  0  0
  -10.8315   -1.1732  -12.9331 C   0  0  0  0  0  0  0  0  0  0  0  0
  -13.0449   -1.3481  -13.8923 C   0  0  0  0  0  0  0  0  0  0  0  0
  -14.4792   -0.7730  -13.9266 C   0  0  0  0  0  0  0  0  0  0  0  0
  -14.6579    2.8860  -16.2026 O   0  0  0  0  0  0  0  0  0  0  0  0
  -14.5603    4.2776  -15.8918 C   0  0  0  0  0  0  0  0  0  0  0  0
 20 21  1  0  0  0
 21 18  1  0  0  0
 18 15  1  0  0  0
 18 19  1  0  0  0
 15 16  2  0  0  0
 15 17  2  0  0  0
 15  9  1  0  0  0
  9 10  1  0  0  0
  9 14  2  0  0  0
 10 11  2  0  0  0
 11 12  1  0  0  0
 12 13  2  0  0  0
 13 14  1  0  0  0
 14  7  1  0  0  0
  7  1  1  0  0  0
  7  8  1  0  0  0
  1  2  1  0  0  0
  1  6  2  0  0  0
  2  3  2  0  0  0
  3  4  1  0  0  0
  4  5  2  0  0  0
  5 22  1  0  0  0
  5  6  1  0  0  0
 22 24  1  0  0  0
 22 23  1  0  0  0
 24 25  1  0  0  0
 24 29  2  0  0  0
 25 26  2  0  0  0
 26 27  1  0  0  0
 27 30  1  0  0  0
 27 28  2  0  0  0
 30 31  1  0  0  0
 30 36  1  0  0  0
 31 32  1  0  0  0
 32 33  1  0  0  0
 33 34  1  0  0  0
 33 35  1  0  0  0
 35 36  1  0  0  0
 28 37  1  0  0  0
 28 29  1  0  0  0
 37 38  1  0  0  0
M  END
> <minimizedAffinity>
-8.33871

$$$$
