CHEMBL3918628


 44 46  0  0  0  0  0  0  0  0999 V2000
  -15.8083   -0.1657  -14.2087 C   0  0  0  0  0  0  0  0  0  0  0  0
  -15.7555   -1.5249  -13.8716 C   0  0  0  0  0  0  0  0  0  0  0  0
  -14.5140   -2.1506  -13.7491 C   0  0  0  0  0  0  0  0  0  0  0  0
  -13.3776   -1.3791  -13.9212 C   0  0  0  0  0  0  0  0  0  0  0  0
  -13.3968   -0.0546  -14.2405 N   0  0  0  0  0  0  0  0  0  0  0  0
  -14.6024    0.5284  -14.3976 C   0  0  0  0  0  0  0  0  0  0  0  0
  -14.5714    1.8373  -14.8747 N   0  0  0  0  0  0  0  0  0  0  0  0
  -13.6120    2.1706  -14.8466 H   0  0  0  0  0  0  0  0  0  0  0  0
  -15.2323    2.4529  -14.4181 H   0  0  0  0  0  0  0  0  0  0  0  0
  -18.1417    1.0345  -14.4727 C   0  0  0  0  0  0  0  0  0  0  0  0
  -17.0751    0.4830  -14.3604 C   0  0  0  0  0  0  0  0  0  0  0  0
  -21.8425    1.5746  -14.2153 C   0  0  0  0  0  0  0  0  0  0  0  0
  -21.9041    2.9321  -14.5429 C   0  0  0  0  0  0  0  0  0  0  0  0
  -20.7549    3.6355  -14.9136 C   0  0  0  0  0  0  0  0  0  0  0  0
  -19.5217    2.9938  -14.9301 C   0  0  0  0  0  0  0  0  0  0  0  0
  -19.4307    1.6510  -14.5545 C   0  0  0  0  0  0  0  0  0  0  0  0
  -20.5914    0.9391  -14.2126 C   0  0  0  0  0  0  0  0  0  0  0  0
  -23.0931   -0.0154  -12.7569 C   0  0  0  0  0  0  0  0  0  0  0  0
  -22.2506   -0.1652  -11.8764 O   0  0  0  0  0  0  0  0  0  0  0  0
  -22.9885    0.8205  -13.8593 N   0  0  0  0  0  0  0  0  0  0  0  0
  -23.8287    0.9943  -14.3966 H   0  0  0  0  0  0  0  0  0  0  0  0
  -26.1485   -1.6994  -11.2514 C   0  0  0  0  0  0  0  0  0  0  0  0
  -26.8880   -1.9616  -12.4081 C   0  0  0  0  0  0  0  0  0  0  0  0
  -26.3699   -1.6365  -13.6624 C   0  0  0  0  0  0  0  0  0  0  0  0
  -25.1171   -1.0347  -13.7621 C   0  0  0  0  0  0  0  0  0  0  0  0
  -24.3683   -0.7661  -12.6077 C   0  0  0  0  0  0  0  0  0  0  0  0
  -24.8831   -1.1099  -11.3538 C   0  0  0  0  0  0  0  0  0  0  0  0
  -27.9238   -1.6928   -9.6743 C   0  0  0  0  0  0  0  0  0  0  0  0
  -26.5568   -1.9542   -9.9703 O   0  0  0  0  0  0  0  0  0  0  0  0
  -14.3667   -3.6090  -13.4861 C   0  0  0  0  0  0  0  0  0  0  0  0
  -14.8369   -4.3681  -14.3287 O   0  0  0  0  0  0  0  0  0  0  0  0
  -13.6554   -4.0767  -12.3631 N   0  0  0  0  0  0  0  0  0  0  0  0
  -14.0631   -5.4090  -11.6926 S   0  0  0  0  0  0  0  0  0  0  0  0
  -15.4369   -5.8094  -11.4535 O   0  0  0  0  0  0  0  0  0  0  0  0
  -13.2813   -6.7406  -12.6051 C   0  0  0  0  0  0  0  0  0  0  0  0
  -14.2556   -7.8747  -12.9218 C   0  0  0  0  0  0  0  0  0  0  0  0
  -14.8149   -7.7751  -14.3321 C   0  0  0  0  0  0  0  0  0  0  0  0
  -16.0578   -7.0926  -14.3302 O   0  0  0  0  0  0  0  0  0  0  0  0
  -16.6572   -7.5605  -13.7215 H   0  0  0  0  0  0  0  0  0  0  0  0
  -13.2336   -5.4614  -10.1042 C   0  0  0  0  0  0  0  0  0  0  0  0
  -14.0573   -4.8721   -8.9647 C   0  0  0  0  0  0  0  0  0  0  0  0
  -14.3838   -3.3929   -9.1354 C   0  0  0  0  0  0  0  0  0  0  0  0
  -15.6794   -3.2577   -9.7108 O   0  0  0  0  0  0  0  0  0  0  0  0
  -15.6448   -3.6158  -10.6124 H   0  0  0  0  0  0  0  0  0  0  0  0
 28 29  1  0  0  0
 29 22  1  0  0  0
 22 23  1  0  0  0
 22 27  2  0  0  0
 23 24  2  0  0  0
 24 25  1  0  0  0
 25 26  2  0  0  0
 26 18  1  0  0  0
 26 27  1  0  0  0
 18 19  2  0  0  0
 18 20  1  0  0  0
 20 12  1  0  0  0
 20 21  1  0  0  0
 12 13  1  0  0  0
 12 17  2  0  0  0
 13 14  2  0  0  0
 14 15  1  0  0  0
 15 16  2  0  0  0
 16 10  1  0  0  0
 16 17  1  0  0  0
 10 11  3  0  0  0
 11  1  1  0  0  0
  1  2  1  0  0  0
  1  6  2  0  0  0
  2  3  2  0  0  0
  3 30  1  0  0  0
  3  4  1  0  0  0
 30 31  2  0  0  0
 30 32  1  0  0  0
 32 33  2  0  0  0
 33 34  2  0  0  0
 33 35  1  0  0  0
 33 40  1  0  0  0
 35 36  1  0  0  0
 36 37  1  0  0  0
 37 38  1  0  0  0
 38 39  1  0  0  0
 40 41  1  0  0  0
 41 42  1  0  0  0
 42 43  1  0  0  0
 43 44  1  0  0  0
  4  5  2  0  0  0
  5  6  1  0  0  0
  6  7  1  0  0  0
  7  8  1  0  0  0
  7  9  1  0  0  0
M  END
> <minimizedAffinity>
-9.67070

$$$$
