CHEMBL231370


 41 46  0  0  0  0  0  0  0  0999 V2000
  -26.3709   -2.0648  -10.9302 C   0  0  0  0  0  0  0  0  0  0  0  0
  -25.2094   -1.5127  -10.6138 N   0  0  0  0  0  0  0  0  0  0  0  0
  -24.5685   -1.2198  -11.8143 C   0  0  0  0  0  0  0  0  0  0  0  0
  -23.2906   -0.6521  -12.0930 C   0  0  0  0  0  0  0  0  0  0  0  0
  -22.9437   -0.3924  -13.4280 C   0  0  0  0  0  0  0  0  0  0  0  0
  -23.8590   -0.7166  -14.4471 C   0  0  0  0  0  0  0  0  0  0  0  0
  -25.0900   -1.3252  -14.2065 C   0  0  0  0  0  0  0  0  0  0  0  0
  -25.3944   -1.5706  -12.8745 C   0  0  0  0  0  0  0  0  0  0  0  0
  -26.4708   -2.1795  -12.2915 N   0  0  0  0  0  0  0  0  0  0  0  0
  -27.2513   -2.5821  -12.7832 H   0  0  0  0  0  0  0  0  0  0  0  0
  -27.4125   -2.5167  -10.1849 N   0  0  0  0  0  0  0  0  0  0  0  0
  -28.2028   -2.9326  -10.6650 H   0  0  0  0  0  0  0  0  0  0  0  0
  -28.8292   -2.7313   -6.7225 C   0  0  0  0  0  0  0  0  0  0  0  0
  -28.4336   -3.0506   -8.0373 C   0  0  0  0  0  0  0  0  0  0  0  0
  -27.7708   -2.1250   -8.8735 C   0  0  0  0  0  0  0  0  0  0  0  0
  -27.4712   -0.8726   -8.3433 C   0  0  0  0  0  0  0  0  0  0  0  0
  -27.8446   -0.5450   -7.0380 C   0  0  0  0  0  0  0  0  0  0  0  0
  -28.5183   -1.4652   -6.2089 C   0  0  0  0  0  0  0  0  0  0  0  0
  -28.8531   -1.0130   -4.8061 C   0  0  0  0  0  0  0  0  0  0  0  0
  -30.1563   -1.1117   -4.4287 F   0  0  0  0  0  0  0  0  0  0  0  0
  -28.1493   -1.7137   -3.8673 F   0  0  0  0  0  0  0  0  0  0  0  0
  -28.5140    0.2950   -4.6003 F   0  0  0  0  0  0  0  0  0  0  0  0
  -29.4998   -3.5920   -5.8884 O   0  0  0  0  0  0  0  0  0  0  0  0
  -28.7631   -4.6822   -5.3209 C   0  0  0  0  0  0  0  0  0  0  0  0
  -29.1740   -7.4682   -4.3364 C   0  0  0  0  0  0  0  0  0  0  0  0
  -29.8952   -6.3585   -3.7388 N   0  0  0  0  0  0  0  0  0  0  0  0
  -31.2649   -6.2415   -4.2325 C   0  0  0  0  0  0  0  0  0  0  0  0
  -31.7100   -4.9014   -3.6738 C   0  0  0  0  0  0  0  0  0  0  0  0
  -30.4239   -4.1054   -3.4536 C   0  0  0  0  0  0  0  0  0  0  0  0
  -29.2793   -5.0259   -3.8990 C   0  0  0  0  0  0  0  0  0  0  0  0
  -21.7862    0.0895  -13.9895 O   0  0  0  0  0  0  0  0  0  0  0  0
  -21.3689    1.3773  -14.2069 C   0  0  0  0  0  0  0  0  0  0  0  0
  -22.1623    2.5087  -14.1380 C   0  0  0  0  0  0  0  0  0  0  0  0
  -21.5859    3.7217  -14.4751 C   0  0  0  0  0  0  0  0  0  0  0  0
  -20.3099    3.8771  -14.8900 N   0  0  0  0  0  0  0  0  0  0  0  0
  -19.5500    2.7801  -15.0127 C   0  0  0  0  0  0  0  0  0  0  0  0
  -18.2542    2.9236  -15.5054 C   0  0  0  0  0  0  0  0  0  0  0  0
  -17.4109    1.8293  -15.7046 C   0  0  0  0  0  0  0  0  0  0  0  0
  -17.8648    0.5553  -15.4006 C   0  0  0  0  0  0  0  0  0  0  0  0
  -19.1563    0.3891  -14.8931 C   0  0  0  0  0  0  0  0  0  0  0  0
  -20.0269    1.4927  -14.6896 C   0  0  0  0  0  0  0  0  0  0  0  0
 25 26  1  0  0  0
 26 27  1  0  0  0
 26 30  1  0  0  0
 27 28  1  0  0  0
 28 29  1  0  0  0
 29 30  1  0  0  0
 30 24  1  0  0  0
 24 23  1  0  0  0
 23 13  1  0  0  0
 13 14  1  0  0  0
 13 18  2  0  0  0
 14 15  2  0  0  0
 15 11  1  0  0  0
 15 16  1  0  0  0
 11  1  1  0  0  0
 11 12  1  0  0  0
  1  2  2  0  0  0
  1  9  1  0  0  0
  2  3  1  0  0  0
  3  4  1  0  0  0
  3  8  2  0  0  0
  4  5  2  0  0  0
  5 31  1  0  0  0
  5  6  1  0  0  0
 31 32  1  0  0  0
 32 33  1  0  0  0
 32 41  2  0  0  0
 33 34  2  0  0  0
 34 35  1  0  0  0
 35 36  2  0  0  0
 36 37  1  0  0  0
 36 41  1  0  0  0
 37 38  2  0  0  0
 38 39  1  0  0  0
 39 40  2  0  0  0
 40 41  1  0  0  0
  6  7  2  0  0  0
  7  8  1  0  0  0
  8  9  1  0  0  0
  9 10  1  0  0  0
 16 17  2  0  0  0
 17 18  1  0  0  0
 18 19  1  0  0  0
 19 20  1  0  0  0
 19 21  1  0  0  0
 19 22  1  0  0  0
M  END
> <minimizedAffinity>
-12.44565

$$$$
