CHEMBL3976169


 38 41  0  0  0  0  0  0  0  0999 V2000
  -30.2925  -11.6705   -7.6134 C   0  0  0  0  0  0  0  0  0  0  0  0
  -30.2701  -10.1655   -7.6644 C   0  0  0  0  0  0  0  0  0  0  0  0
  -31.5134   -9.5184   -7.4966 C   0  0  0  0  0  0  0  0  0  0  0  0
  -31.6161   -8.1313   -7.5101 C   0  0  0  0  0  0  0  0  0  0  0  0
  -30.4713   -7.3538   -7.6271 C   0  0  0  0  0  0  0  0  0  0  0  0
  -29.2325   -7.9823   -7.8217 C   0  0  0  0  0  0  0  0  0  0  0  0
  -29.1001   -9.3870   -7.8413 C   0  0  0  0  0  0  0  0  0  0  0  0
  -27.8352  -10.0202   -8.0710 N   0  0  0  0  0  0  0  0  0  0  0  0
  -26.9530  -10.4791   -7.0967 C   0  0  0  0  0  0  0  0  0  0  0  0
  -27.1939  -10.5441   -5.8955 O   0  0  0  0  0  0  0  0  0  0  0  0
  -25.7040  -10.8113   -7.6220 N   0  0  0  0  0  0  0  0  0  0  0  0
  -27.6153  -10.2642   -9.0251 H   0  0  0  0  0  0  0  0  0  0  0  0
  -25.4324  -10.2579   -8.4227 H   0  0  0  0  0  0  0  0  0  0  0  0
  -24.6446  -11.2380   -6.7731 C   0  0  0  0  0  0  0  0  0  0  0  0
  -23.5816  -11.9459   -7.3280 C   0  0  0  0  0  0  0  0  0  0  0  0
  -22.4819  -12.2933   -6.5352 C   0  0  0  0  0  0  0  0  0  0  0  0
  -22.4534  -11.9930   -5.1667 C   0  0  0  0  0  0  0  0  0  0  0  0
  -21.0307  -12.4660   -4.3109 Cl  0  0  0  0  0  0  0  0  0  0  0  0
  -23.5350  -11.3396   -4.5700 C   0  0  0  0  0  0  0  0  0  0  0  0
  -24.6205  -10.9515   -5.3995 C   0  0  0  0  0  0  0  0  0  0  0  0
  -23.6241  -11.0167   -3.0979 C   0  0  0  0  0  0  0  0  0  0  0  0
  -24.4095   -9.9599   -2.7563 F   0  0  0  0  0  0  0  0  0  0  0  0
  -24.0919  -12.0658   -2.3642 F   0  0  0  0  0  0  0  0  0  0  0  0
  -22.3972  -10.7241   -2.5734 F   0  0  0  0  0  0  0  0  0  0  0  0
  -30.4979   -5.9704   -7.6491 O   0  0  0  0  0  0  0  0  0  0  0  0
  -30.1949   -5.2898   -6.4656 C   0  0  0  0  0  0  0  0  0  0  0  0
  -29.9676   -3.9253   -6.5659 C   0  0  0  0  0  0  0  0  0  0  0  0
  -29.6876   -3.2764   -5.3776 C   0  0  0  0  0  0  0  0  0  0  0  0
  -29.6626   -3.9349   -4.2105 N   0  0  0  0  0  0  0  0  0  0  0  0
  -29.8788   -5.2508   -4.2304 C   0  0  0  0  0  0  0  0  0  0  0  0
  -30.1330   -5.9729   -5.3178 N   0  0  0  0  0  0  0  0  0  0  0  0
  -29.4037   -1.8930   -5.3870 N   0  0  0  0  0  0  0  0  0  0  0  0
  -28.3009   -1.3519   -6.0275 C   0  0  0  0  0  0  0  0  0  0  0  0
  -27.4093   -1.9640   -6.5989 O   0  0  0  0  0  0  0  0  0  0  0  0
  -30.0482   -1.2754   -4.9246 H   0  0  0  0  0  0  0  0  0  0  0  0
  -28.1710    0.1368   -6.0276 C   0  0  0  0  0  0  0  0  0  0  0  0
  -28.3555    0.9078   -4.7429 C   0  0  0  0  0  0  0  0  0  0  0  0
  -29.2675    1.1555   -5.9105 C   0  0  0  0  0  0  0  0  0  0  0  0
  1  2  1  0  0  0
  2  3  1  0  0  0
  2  7  2  0  0  0
  3  4  2  0  0  0
  4  5  1  0  0  0
  5 25  1  0  0  0
  5  6  2  0  0  0
 25 26  1  0  0  0
 26 27  1  0  0  0
 26 31  2  0  0  0
 27 28  2  0  0  0
 28 32  1  0  0  0
 28 29  1  0  0  0
 32 33  1  0  0  0
 32 35  1  0  0  0
 33 34  2  0  0  0
 33 36  1  0  0  0
 36 37  1  0  0  0
 36 38  1  0  0  0
 37 38  1  0  0  0
 29 30  2  0  0  0
 30 31  1  0  0  0
  6  7  1  0  0  0
  7  8  1  0  0  0
  8  9  1  0  0  0
  8 12  1  0  0  0
  9 10  2  0  0  0
  9 11  1  0  0  0
 11 14  1  0  0  0
 11 13  1  0  0  0
 14 15  1  0  0  0
 14 20  2  0  0  0
 15 16  2  0  0  0
 16 17  1  0  0  0
 17 18  1  0  0  0
 17 19  2  0  0  0
 19 21  1  0  0  0
 19 20  1  0  0  0
 21 22  1  0  0  0
 21 23  1  0  0  0
 21 24  1  0  0  0
M  END
> <minimizedAffinity>
-9.09095

$$$$
