CHEMBL3890891


 44 47  0  0  0  0  0  0  0  0999 V2000
  -28.5299   11.8547  -14.0492 C   0  0  0  0  0  0  0  0  0  0  0  0
  -27.6164   12.4096  -13.1797 C   0  0  0  0  0  0  0  0  0  0  0  0
  -26.2677   12.2155  -13.5903 C   0  0  0  0  0  0  0  0  0  0  0  0
  -25.1807   12.6561  -12.9038 N   0  0  0  0  0  0  0  0  0  0  0  0
  -23.9862   12.3540  -13.4421 C   0  0  0  0  0  0  0  0  0  0  0  0
  -23.7998   11.6580  -14.6202 C   0  0  0  0  0  0  0  0  0  0  0  0
  -24.9173   11.2712  -15.3656 C   0  0  0  0  0  0  0  0  0  0  0  0
  -26.1779   11.5254  -14.7995 C   0  0  0  0  0  0  0  0  0  0  0  0
  -27.7426   11.1207  -15.3856 S   0  0  0  0  0  0  0  0  0  0  0  0
  -30.4641   12.3185  -12.7095 N   0  0  0  0  0  0  0  0  0  0  0  0
  -29.9746   11.8632  -13.9130 C   0  0  0  0  0  0  0  0  0  0  0  0
  -30.7374   11.4948  -14.8137 O   0  0  0  0  0  0  0  0  0  0  0  0
  -29.8037   12.5465  -11.9736 H   0  0  0  0  0  0  0  0  0  0  0  0
  -31.8826   12.3823  -12.4017 C   0  0  0  0  0  0  0  0  0  0  0  0
  -32.3539   11.1771  -11.5751 C   0  0  0  0  0  0  0  0  0  0  0  0
  -32.5926   10.0175  -12.4426 N   0  0  0  0  0  0  0  0  0  0  0  0
  -32.2544   10.2164  -13.3867 H   0  0  0  0  0  0  0  0  0  0  0  0
  -34.0281    9.6931  -12.5233 C   0  0  0  0  0  0  0  0  0  0  0  0
  -34.5871   10.1295  -13.8770 C   0  0  0  0  0  0  0  0  0  0  0  0
  -34.3914    9.5473  -14.9379 O   0  0  0  0  0  0  0  0  0  0  0  0
  -35.8215   11.4975  -12.4309 C   0  0  0  0  0  0  0  0  0  0  0  0
  -35.2893   11.2919  -13.7400 O   0  0  0  0  0  0  0  0  0  0  0  0
  -24.8127   10.6395  -16.5975 O   0  0  0  0  0  0  0  0  0  0  0  0
  -23.8436   11.0854  -17.4796 C   0  0  0  0  0  0  0  0  0  0  0  0
  -22.4826   11.0674  -17.1835 C   0  0  0  0  0  0  0  0  0  0  0  0
  -21.5491   11.3923  -18.1644 C   0  0  0  0  0  0  0  0  0  0  0  0
  -21.9483   11.7967  -19.4364 C   0  0  0  0  0  0  0  0  0  0  0  0
  -23.3195   11.9457  -19.6775 C   0  0  0  0  0  0  0  0  0  0  0  0
  -23.7371   12.3905  -20.8725 F   0  0  0  0  0  0  0  0  0  0  0  0
  -24.2681   11.5836  -18.7139 C   0  0  0  0  0  0  0  0  0  0  0  0
  -20.9987   12.0571  -20.4604 N   0  0  0  0  0  0  0  0  0  0  0  0
  -19.7610   11.4409  -20.4895 C   0  0  0  0  0  0  0  0  0  0  0  0
  -19.4264   10.5440  -19.7189 O   0  0  0  0  0  0  0  0  0  0  0  0
  -18.9133   11.9566  -21.4608 N   0  0  0  0  0  0  0  0  0  0  0  0
  -21.3576   12.4071  -21.3422 H   0  0  0  0  0  0  0  0  0  0  0  0
  -18.9821   12.9629  -21.5617 H   0  0  0  0  0  0  0  0  0  0  0  0
  -17.5865   11.4428  -21.5015 C   0  0  0  0  0  0  0  0  0  0  0  0
  -16.5086   12.1971  -21.0186 C   0  0  0  0  0  0  0  0  0  0  0  0
  -15.1883   11.7961  -21.2594 C   0  0  0  0  0  0  0  0  0  0  0  0
  -14.0405   12.6527  -20.8103 C   0  0  0  0  0  0  0  0  0  0  0  0
  -14.9572   10.6207  -21.9854 C   0  0  0  0  0  0  0  0  0  0  0  0
  -16.0293    9.8329  -22.4154 C   0  0  0  0  0  0  0  0  0  0  0  0
  -17.3354   10.2361  -22.1512 C   0  0  0  0  0  0  0  0  0  0  0  0
  -18.3577    9.5037  -22.6197 F   0  0  0  0  0  0  0  0  0  0  0  0
 21 22  1  0  0  0
 22 19  1  0  0  0
 19 20  2  0  0  0
 19 18  1  0  0  0
 18 16  1  0  0  0
 16 15  1  0  0  0
 16 17  1  0  0  0
 15 14  1  0  0  0
 14 10  1  0  0  0
 10 11  1  0  0  0
 10 13  1  0  0  0
 11 12  2  0  0  0
 11  1  1  0  0  0
  1  2  2  0  0  0
  1  9  1  0  0  0
  2  3  1  0  0  0
  3  4  1  0  0  0
  3  8  2  0  0  0
  4  5  2  0  0  0
  5  6  1  0  0  0
  6  7  2  0  0  0
  7 23  1  0  0  0
  7  8  1  0  0  0
 23 24  1  0  0  0
 24 25  1  0  0  0
 24 30  2  0  0  0
 25 26  2  0  0  0
 26 27  1  0  0  0
 27 31  1  0  0  0
 27 28  2  0  0  0
 31 32  1  0  0  0
 31 35  1  0  0  0
 32 33  2  0  0  0
 32 34  1  0  0  0
 34 37  1  0  0  0
 34 36  1  0  0  0
 37 38  1  0  0  0
 37 43  2  0  0  0
 38 39  2  0  0  0
 39 40  1  0  0  0
 39 41  1  0  0  0
 41 42  2  0  0  0
 42 43  1  0  0  0
 43 44  1  0  0  0
 28 29  1  0  0  0
 28 30  1  0  0  0
  8  9  1  0  0  0
M  END
> <minimizedAffinity>
-5.21534

$$$$
