CHEMBL3895612


 28 31  0  0  0  0  0  0  0  0999 V2000
  -28.3788   -8.0710   -6.3582 C   0  0  0  0  0  0  0  0  0  0  0  0
  -28.7421   -8.1845   -5.0742 N   0  0  0  0  0  0  0  0  0  0  0  0
  -29.3459   -7.1476   -4.4782 C   0  0  0  0  0  0  0  0  0  0  0  0
  -29.5980   -5.9634   -5.1148 C   0  0  0  0  0  0  0  0  0  0  0  0
  -29.1789   -5.9068   -6.4352 C   0  0  0  0  0  0  0  0  0  0  0  0
  -28.5574   -6.9375   -7.0631 N   0  0  0  0  0  0  0  0  0  0  0  0
  -29.3521   -4.6317   -7.2243 C   0  0  0  0  0  0  0  0  0  0  0  0
  -30.4257   -3.7354   -6.5975 C   0  0  0  0  0  0  0  0  0  0  0  0
  -30.1650   -3.5958   -5.1612 N   0  0  0  0  0  0  0  0  0  0  0  0
  -29.7605   -2.4643   -4.4536 C   0  0  0  0  0  0  0  0  0  0  0  0
  -29.7167   -2.4529   -3.2248 O   0  0  0  0  0  0  0  0  0  0  0  0
  -30.3221   -4.8465   -4.4275 C   0  0  0  0  0  0  0  0  0  0  0  0
  -29.3717   -1.2132   -5.1477 C   0  0  0  0  0  0  0  0  0  0  0  0
  -30.2027   -0.1057   -5.3134 C   0  0  0  0  0  0  0  0  0  0  0  0
  -29.7354    1.0276   -5.9746 C   0  0  0  0  0  0  0  0  0  0  0  0
  -28.4603    0.9938   -6.5087 C   0  0  0  0  0  0  0  0  0  0  0  0
  -27.6466   -0.0793   -6.4270 N   0  0  0  0  0  0  0  0  0  0  0  0
  -28.1235   -1.1605   -5.7567 C   0  0  0  0  0  0  0  0  0  0  0  0
  -27.8506   -9.1676   -7.0428 N   0  0  0  0  0  0  0  0  0  0  0  0
  -26.8998   -9.3375   -6.7342 H   0  0  0  0  0  0  0  0  0  0  0  0
  -29.2356  -10.0806   -8.8504 C   0  0  0  0  0  0  0  0  0  0  0  0
  -29.3612  -10.4939  -10.1838 C   0  0  0  0  0  0  0  0  0  0  0  0
  -28.3194  -10.2907  -11.0927 C   0  0  0  0  0  0  0  0  0  0  0  0
  -27.1703   -9.6258  -10.6931 C   0  0  0  0  0  0  0  0  0  0  0  0
  -27.0476   -9.1986   -9.3749 C   0  0  0  0  0  0  0  0  0  0  0  0
  -28.0369   -9.4712   -8.4159 C   0  0  0  0  0  0  0  0  0  0  0  0
  -31.4028   -9.4758   -8.0676 C   0  0  0  0  0  0  0  0  0  0  0  0
  -30.2129  -10.2394   -7.8942 O   0  0  0  0  0  0  0  0  0  0  0  0
 27 28  1  0  0  0
 28 21  1  0  0  0
 21 22  1  0  0  0
 21 26  2  0  0  0
 22 23  2  0  0  0
 23 24  1  0  0  0
 24 25  2  0  0  0
 25 26  1  0  0  0
 26 19  1  0  0  0
 19  1  1  0  0  0
 19 20  1  0  0  0
  1  2  1  0  0  0
  1  6  2  0  0  0
  2  3  2  0  0  0
  3  4  1  0  0  0
  4  5  2  0  0  0
  4 12  1  0  0  0
  5  6  1  0  0  0
  5  7  1  0  0  0
  7  8  1  0  0  0
  8  9  1  0  0  0
  9 10  1  0  0  0
  9 12  1  0  0  0
 10 11  2  0  0  0
 10 13  1  0  0  0
 13 14  1  0  0  0
 13 18  2  0  0  0
 14 15  2  0  0  0
 15 16  1  0  0  0
 16 17  2  0  0  0
 17 18  1  0  0  0
M  END
> <minimizedAffinity>
-8.59404

$$$$
