CHEMBL3970053


 42 44  0  0  0  0  0  0  0  0999 V2000
  -18.4420    1.6598  -14.8485 C   0  0  0  0  0  0  0  0  0  0  0  0
  -18.5846    3.0352  -14.7683 C   0  0  0  0  0  0  0  0  0  0  0  0
  -19.7651    3.6609  -14.5132 N   0  0  0  0  0  0  0  0  0  0  0  0
  -20.8540    2.8879  -14.3164 C   0  0  0  0  0  0  0  0  0  0  0  0
  -22.0552    3.5786  -14.1688 N   0  0  0  0  0  0  0  0  0  0  0  0
  -20.7990    1.4884  -14.3454 C   0  0  0  0  0  0  0  0  0  0  0  0
  -19.5751    0.8734  -14.6174 C   0  0  0  0  0  0  0  0  0  0  0  0
  -21.8467    4.5699  -14.0970 H   0  0  0  0  0  0  0  0  0  0  0  0
  -22.6229    3.2293  -13.4065 H   0  0  0  0  0  0  0  0  0  0  0  0
  -17.1356    1.0372  -15.1897 C   0  0  0  0  0  0  0  0  0  0  0  0
  -16.5734    1.4726  -16.1899 O   0  0  0  0  0  0  0  0  0  0  0  0
  -14.9979   -0.1073  -14.3582 S   0  0  0  0  0  0  0  0  0  0  0  0
  -14.2573    1.3236  -13.5901 C   0  0  0  0  0  0  0  0  0  0  0  0
  -14.2300   -0.3998  -15.5531 O   0  0  0  0  0  0  0  0  0  0  0  0
  -16.5324    0.0801  -14.3471 N   0  0  0  0  0  0  0  0  0  0  0  0
  -14.5986   -1.3884  -13.1738 C   0  0  0  0  0  0  0  0  0  0  0  0
  -15.8288   -2.1833  -12.7447 C   0  0  0  0  0  0  0  0  0  0  0  0
  -15.6319   -3.6795  -12.9947 C   0  0  0  0  0  0  0  0  0  0  0  0
  -16.3769   -4.5350  -11.9687 C   0  0  0  0  0  0  0  0  0  0  0  0
  -15.4330   -5.1145  -10.9399 C   0  0  0  0  0  0  0  0  0  0  0  0
  -14.8316   -6.1742  -11.0514 O   0  0  0  0  0  0  0  0  0  0  0  0
  -14.0165   -3.8883   -9.5370 C   0  0  0  0  0  0  0  0  0  0  0  0
  -15.3512   -4.2781   -9.8668 O   0  0  0  0  0  0  0  0  0  0  0  0
  -21.9535    0.6806  -14.0784 C   0  0  0  0  0  0  0  0  0  0  0  0
  -22.9531    0.0441  -13.8790 C   0  0  0  0  0  0  0  0  0  0  0  0
  -24.1667   -0.6915  -13.6907 C   0  0  0  0  0  0  0  0  0  0  0  0
  -24.9075   -1.0920  -14.8034 C   0  0  0  0  0  0  0  0  0  0  0  0
  -26.1084   -1.7697  -14.6238 C   0  0  0  0  0  0  0  0  0  0  0  0
  -26.5657   -2.0524  -13.3360 C   0  0  0  0  0  0  0  0  0  0  0  0
  -25.8268   -1.6770  -12.2087 C   0  0  0  0  0  0  0  0  0  0  0  0
  -24.6239   -0.9829  -12.3968 C   0  0  0  0  0  0  0  0  0  0  0  0
  -26.2474   -1.9502  -10.8820 N   0  0  0  0  0  0  0  0  0  0  0  0
  -27.4358   -1.5198  -10.3124 C   0  0  0  0  0  0  0  0  0  0  0  0
  -28.3312   -0.9085  -10.8876 O   0  0  0  0  0  0  0  0  0  0  0  0
  -25.6839   -2.6022  -10.3538 H   0  0  0  0  0  0  0  0  0  0  0  0
  -27.6727   -1.8794   -8.8859 C   0  0  0  0  0  0  0  0  0  0  0  0
  -27.5811   -0.9562   -7.8391 C   0  0  0  0  0  0  0  0  0  0  0  0
  -27.8945   -1.3571   -6.5365 C   0  0  0  0  0  0  0  0  0  0  0  0
  -28.2917   -2.6724   -6.2736 C   0  0  0  0  0  0  0  0  0  0  0  0
  -28.3798   -3.6055   -7.3101 C   0  0  0  0  0  0  0  0  0  0  0  0
  -28.8078   -5.0216   -7.0618 C   0  0  0  0  0  0  0  0  0  0  0  0
  -28.0791   -3.1957   -8.6140 C   0  0  0  0  0  0  0  0  0  0  0  0
 22 23  1  0  0  0
 23 20  1  0  0  0
 20 21  2  0  0  0
 20 19  1  0  0  0
 19 18  1  0  0  0
 18 17  1  0  0  0
 17 16  1  0  0  0
 16 12  1  0  0  0
 12 13  1  0  0  0
 12 14  2  0  0  0
 12 15  2  0  0  0
 15 10  1  0  0  0
 10 11  2  0  0  0
 10  1  1  0  0  0
  1  2  1  0  0  0
  1  7  2  0  0  0
  2  3  2  0  0  0
  3  4  1  0  0  0
  4  5  1  0  0  0
  4  6  2  0  0  0
  5  8  1  0  0  0
  5  9  1  0  0  0
  6 24  1  0  0  0
  6  7  1  0  0  0
 24 25  3  0  0  0
 25 26  1  0  0  0
 26 27  1  0  0  0
 26 31  2  0  0  0
 27 28  2  0  0  0
 28 29  1  0  0  0
 29 30  2  0  0  0
 30 32  1  0  0  0
 30 31  1  0  0  0
 32 33  1  0  0  0
 32 35  1  0  0  0
 33 34  2  0  0  0
 33 36  1  0  0  0
 36 37  1  0  0  0
 36 42  2  0  0  0
 37 38  2  0  0  0
 38 39  1  0  0  0
 39 40  2  0  0  0
 40 41  1  0  0  0
 40 42  1  0  0  0
M  END
> <minimizedAffinity>
-11.02844

$$$$
