CHEMBL3952373


 32 36  0  0  0  0  0  0  0  0999 V2000
  -13.9801   -1.9032  -15.0198 N   0  0  0  0  0  0  0  0  0  0  0  0
  -14.7161   -1.5096  -13.9470 C   0  0  0  0  0  0  0  0  0  0  0  0
  -15.4252   -0.3301  -13.8078 C   0  0  0  0  0  0  0  0  0  0  0  0
  -15.9068   -0.3767  -12.4822 C   0  0  0  0  0  0  0  0  0  0  0  0
  -15.5126   -1.4564  -11.7985 N   0  0  0  0  0  0  0  0  0  0  0  0
  -14.8406   -2.2054  -12.7268 N   0  0  0  0  0  0  0  0  0  0  0  0
  -13.9152   -1.2935  -15.8371 H   0  0  0  0  0  0  0  0  0  0  0  0
  -13.1985   -2.5477  -14.9513 H   0  0  0  0  0  0  0  0  0  0  0  0
  -14.2898   -3.4760  -12.3648 C   0  0  0  0  0  0  0  0  0  0  0  0
  -13.2549   -3.5616  -11.3982 C   0  0  0  0  0  0  0  0  0  0  0  0
  -12.8127   -4.7934  -10.9009 C   0  0  0  0  0  0  0  0  0  0  0  0
  -13.3850   -5.9131  -11.4402 C   0  0  0  0  0  0  0  0  0  0  0  0
  -13.1339   -7.2509  -11.1709 N   0  0  0  0  0  0  0  0  0  0  0  0
  -13.9064   -8.0284  -12.0280 C   0  0  0  0  0  0  0  0  0  0  0  0
  -13.9350   -9.2478  -12.0782 O   0  0  0  0  0  0  0  0  0  0  0  0
  -14.6534   -7.1575  -12.8235 N   0  0  0  0  0  0  0  0  0  0  0  0
  -14.3397   -5.8491  -12.4619 C   0  0  0  0  0  0  0  0  0  0  0  0
  -14.8085   -4.6484  -12.9513 C   0  0  0  0  0  0  0  0  0  0  0  0
  -12.4951   -7.6175  -10.4882 H   0  0  0  0  0  0  0  0  0  0  0  0
  -15.2864   -7.4510  -13.5523 H   0  0  0  0  0  0  0  0  0  0  0  0
  -15.5673    0.6745  -14.8519 C   0  0  0  0  0  0  0  0  0  0  0  0
  -14.6045    1.0828  -15.4972 O   0  0  0  0  0  0  0  0  0  0  0  0
  -16.8944    1.1912  -15.0801 C   0  0  0  0  0  0  0  0  0  0  0  0
  -17.3726    2.4831  -15.1989 C   0  0  0  0  0  0  0  0  0  0  0  0
  -18.7839    2.4085  -15.2885 C   0  0  0  0  0  0  0  0  0  0  0  0
  -19.7982    3.3764  -15.3005 C   0  0  0  0  0  0  0  0  0  0  0  0
  -20.9096    3.0248  -14.5365 C   0  0  0  0  0  0  0  0  0  0  0  0
  -21.2790    1.6881  -14.4194 C   0  0  0  0  0  0  0  0  0  0  0  0
  -20.4490    0.6687  -14.8967 C   0  0  0  0  0  0  0  0  0  0  0  0
  -19.1392    1.0704  -15.1615 C   0  0  0  0  0  0  0  0  0  0  0  0
  -17.9749    0.3547  -15.2881 N   0  0  0  0  0  0  0  0  0  0  0  0
  -17.9103   -0.6544  -15.2928 H   0  0  0  0  0  0  0  0  0  0  0  0
  1  2  1  0  0  0
  1  7  1  0  0  0
  1  8  1  0  0  0
  2  3  2  0  0  0
  2  6  1  0  0  0
  3 21  1  0  0  0
  3  4  1  0  0  0
 21 22  2  0  0  0
 21 23  1  0  0  0
 23 24  2  0  0  0
 23 31  1  0  0  0
 24 25  1  0  0  0
 25 26  1  0  0  0
 25 30  2  0  0  0
 26 27  2  0  0  0
 27 28  1  0  0  0
 28 29  2  0  0  0
 29 30  1  0  0  0
 30 31  1  0  0  0
 31 32  1  0  0  0
  4  5  2  0  0  0
  5  6  1  0  0  0
  6  9  1  0  0  0
  9 10  1  0  0  0
  9 18  2  0  0  0
 10 11  2  0  0  0
 11 12  1  0  0  0
 12 13  1  0  0  0
 12 17  2  0  0  0
 13 14  1  0  0  0
 13 19  1  0  0  0
 14 15  2  0  0  0
 14 16  1  0  0  0
 16 17  1  0  0  0
 16 20  1  0  0  0
 17 18  1  0  0  0
M  END
> <minimizedAffinity>
-9.60179

$$$$
