CHEMBL493708


 31 34  0  0  0  0  0  0  0  0999 V2000
  -29.7796   -6.2468   -6.7473 C   0  0  0  0  0  0  0  0  0  0  0  0
  -29.7325   -5.1352   -7.6129 C   0  0  0  0  0  0  0  0  0  0  0  0
  -29.7436   -3.8132   -7.1361 C   0  0  0  0  0  0  0  0  0  0  0  0
  -29.7706   -3.5414   -5.7546 C   0  0  0  0  0  0  0  0  0  0  0  0
  -29.7515   -2.2624   -5.1700 C   0  0  0  0  0  0  0  0  0  0  0  0
  -29.7658   -2.0683   -3.8315 N   0  0  0  0  0  0  0  0  0  0  0  0
  -29.8140   -3.1301   -2.9924 N   0  0  0  0  0  0  0  0  0  0  0  0
  -29.8532   -4.3727   -3.5145 C   0  0  0  0  0  0  0  0  0  0  0  0
  -29.8377   -4.6370   -4.8786 C   0  0  0  0  0  0  0  0  0  0  0  0
  -29.8791   -5.9577   -5.3794 C   0  0  0  0  0  0  0  0  0  0  0  0
  -32.2892   -8.0146   -7.2824 C   0  0  0  0  0  0  0  0  0  0  0  0
  -30.8670   -8.4660   -7.5084 C   0  0  0  0  0  0  0  0  0  0  0  0
  -30.6943   -9.8068   -7.9233 C   0  0  0  0  0  0  0  0  0  0  0  0
  -29.4270  -10.3596   -8.1051 C   0  0  0  0  0  0  0  0  0  0  0  0
  -28.3033   -9.5631   -7.9120 C   0  0  0  0  0  0  0  0  0  0  0  0
  -28.4651   -8.2235   -7.5235 C   0  0  0  0  0  0  0  0  0  0  0  0
  -29.7317   -7.6412   -7.2840 C   0  0  0  0  0  0  0  0  0  0  0  0
  -26.9152  -10.0915   -8.0195 C   0  0  0  0  0  0  0  0  0  0  0  0
  -26.5461  -10.6085   -9.0700 O   0  0  0  0  0  0  0  0  0  0  0  0
  -26.1113   -9.9775   -6.9014 N   0  0  0  0  0  0  0  0  0  0  0  0
  -26.4998   -9.6407   -6.0311 H   0  0  0  0  0  0  0  0  0  0  0  0
  -24.7748  -10.4839   -6.8948 C   0  0  0  0  0  0  0  0  0  0  0  0
  -24.2594  -11.2477   -5.7060 C   0  0  0  0  0  0  0  0  0  0  0  0
  -23.7212   -9.8802   -6.0095 C   0  0  0  0  0  0  0  0  0  0  0  0
  -29.6980   -1.1442   -5.9863 O   0  0  0  0  0  0  0  0  0  0  0  0
  -29.5434    0.0857   -5.2372 C   0  0  0  0  0  0  0  0  0  0  0  0
  -30.6247    1.0418   -5.7427 C   0  0  0  0  0  0  0  0  0  0  0  0
  -28.1463    0.7306   -5.3477 C   0  0  0  0  0  0  0  0  0  0  0  0
  -27.1500   -0.1757   -5.4518 F   0  0  0  0  0  0  0  0  0  0  0  0
  -28.0475    1.5404   -6.4323 F   0  0  0  0  0  0  0  0  0  0  0  0
  -27.8869    1.5062   -4.2670 F   0  0  0  0  0  0  0  0  0  0  0  0
 11 12  1  0  0  0
 12 13  1  0  0  0
 12 17  2  0  0  0
 13 14  2  0  0  0
 14 15  1  0  0  0
 15 18  1  0  0  0
 15 16  2  0  0  0
 18 19  2  0  0  0
 18 20  1  0  0  0
 20 22  1  0  0  0
 20 21  1  0  0  0
 22 23  1  0  0  0
 22 24  1  0  0  0
 23 24  1  0  0  0
 16 17  1  0  0  0
 17  1  1  0  0  0
  1  2  1  0  0  0
  1 10  2  0  0  0
  2  3  2  0  0  0
  3  4  1  0  0  0
  4  5  1  0  0  0
  4  9  2  0  0  0
  5 25  1  0  0  0
  5  6  2  0  0  0
 26 28  1  0  0  0
 26 27  1  0  0  0
 26 25  1  0  0  0
 28 29  1  0  0  0
 28 30  1  0  0  0
 28 31  1  0  0  0
  6  7  1  0  0  0
  7  8  2  0  0  0
  8  9  1  0  0  0
  9 10  1  0  0  0
M  END
> <minimizedAffinity>
-9.24644

$$$$
