CHEMBL3644551


 30 33  0  0  0  0  0  0  0  0999 V2000
  -15.1682    1.1550  -14.2340 C   0  0  0  0  0  0  0  0  0  0  0  0
  -13.8544    1.6267  -14.2937 C   0  0  0  0  0  0  0  0  0  0  0  0
  -13.4268    2.4568  -15.3397 C   0  0  0  0  0  0  0  0  0  0  0  0
  -14.2874    2.8456  -16.3714 C   0  0  0  0  0  0  0  0  0  0  0  0
  -15.6018    2.3491  -16.2997 C   0  0  0  0  0  0  0  0  0  0  0  0
  -16.0584    1.5129  -15.2545 C   0  0  0  0  0  0  0  0  0  0  0  0
  -17.5077    1.1171  -15.2213 C   0  0  0  0  0  0  0  0  0  0  0  0
  -13.8765    3.6777  -17.3956 N   0  0  0  0  0  0  0  0  0  0  0  0
  -14.4095    3.5880  -18.7574 C   0  0  0  0  0  0  0  0  0  0  0  0
  -15.2059    4.8539  -19.0844 C   0  0  0  0  0  0  0  0  0  0  0  0
  -14.4387    6.1058  -18.7260 C   0  0  0  0  0  0  0  0  0  0  0  0
  -14.8233    7.3436  -19.2447 C   0  0  0  0  0  0  0  0  0  0  0  0
  -14.1124    8.4699  -18.8648 C   0  0  0  0  0  0  0  0  0  0  0  0
  -13.0644    8.4489  -18.0192 N   0  0  0  0  0  0  0  0  0  0  0  0
  -12.7207    7.2366  -17.5129 C   0  0  0  0  0  0  0  0  0  0  0  0
  -13.3754    6.0493  -17.8164 C   0  0  0  0  0  0  0  0  0  0  0  0
  -12.9061    4.7575  -17.1812 C   0  0  0  0  0  0  0  0  0  0  0  0
  -15.8138   -1.6374  -11.9870 N   0  0  0  0  0  0  0  0  0  0  0  0
  -15.3327   -1.0078  -13.1304 C   0  0  0  0  0  0  0  0  0  0  0  0
  -14.7021   -1.5616  -14.0239 O   0  0  0  0  0  0  0  0  0  0  0  0
  -15.5962    0.3563  -13.1380 N   0  0  0  0  0  0  0  0  0  0  0  0
  -16.3013   -1.0702  -11.3116 H   0  0  0  0  0  0  0  0  0  0  0  0
  -15.5763    0.7934  -12.2313 H   0  0  0  0  0  0  0  0  0  0  0  0
  -13.3414   -5.1024   -9.4203 C   0  0  0  0  0  0  0  0  0  0  0  0
  -14.3995   -4.7163  -10.4143 C   0  0  0  0  0  0  0  0  0  0  0  0
  -15.1290   -5.7155  -11.0663 C   0  0  0  0  0  0  0  0  0  0  0  0
  -16.1083   -5.3734  -11.9874 C   0  0  0  0  0  0  0  0  0  0  0  0
  -16.3564   -4.0335  -12.2797 C   0  0  0  0  0  0  0  0  0  0  0  0
  -15.6253   -3.0090  -11.6644 C   0  0  0  0  0  0  0  0  0  0  0  0
  -14.6611   -3.3618  -10.7095 C   0  0  0  0  0  0  0  0  0  0  0  0
 24 25  1  0  0  0
 25 26  1  0  0  0
 25 30  2  0  0  0
 26 27  2  0  0  0
 27 28  1  0  0  0
 28 29  2  0  0  0
 29 18  1  0  0  0
 29 30  1  0  0  0
 18 19  1  0  0  0
 18 22  1  0  0  0
 19 20  2  0  0  0
 19 21  1  0  0  0
 21  1  1  0  0  0
 21 23  1  0  0  0
  1  2  1  0  0  0
  1  6  2  0  0  0
  2  3  2  0  0  0
  3  4  1  0  0  0
  4  8  1  0  0  0
  4  5  2  0  0  0
  8  9  1  0  0  0
  8 17  1  0  0  0
  9 10  1  0  0  0
 10 11  1  0  0  0
 11 12  1  0  0  0
 11 16  2  0  0  0
 12 13  2  0  0  0
 13 14  1  0  0  0
 14 15  2  0  0  0
 15 16  1  0  0  0
 16 17  1  0  0  0
  5  6  1  0  0  0
  6  7  1  0  0  0
M  END
> <minimizedAffinity>
-7.66041

$$$$
