CHEMBL3775415


 26 28  0  0  0  0  0  0  0  0999 V2000
  -14.9063   -6.9380  -12.9368 C   0  0  0  0  0  0  0  0  0  0  0  0
  -14.9575   -6.2942  -11.6870 C   0  0  0  0  0  0  0  0  0  0  0  0
  -15.1795   -4.9336  -11.5511 C   0  0  0  0  0  0  0  0  0  0  0  0
  -15.2843   -4.4122  -10.3248 N   0  0  0  0  0  0  0  0  0  0  0  0
  -15.5620   -3.1061  -10.2539 C   0  0  0  0  0  0  0  0  0  0  0  0
  -15.7460   -2.2869  -11.2905 N   0  0  0  0  0  0  0  0  0  0  0  0
  -15.6335   -2.8222  -12.5221 C   0  0  0  0  0  0  0  0  0  0  0  0
  -15.3180   -4.1718  -12.7115 C   0  0  0  0  0  0  0  0  0  0  0  0
  -15.1409   -4.7819  -13.9695 C   0  0  0  0  0  0  0  0  0  0  0  0
  -14.9467   -6.1594  -14.0975 C   0  0  0  0  0  0  0  0  0  0  0  0
  -13.7222   -8.8885  -12.2972 C   0  0  0  0  0  0  0  0  0  0  0  0
  -14.8070   -8.3013  -13.0270 O   0  0  0  0  0  0  0  0  0  0  0  0
  -15.8780   -1.9971  -13.6588 N   0  0  0  0  0  0  0  0  0  0  0  0
  -16.8755   -1.7868  -13.7099 H   0  0  0  0  0  0  0  0  0  0  0  0
  -15.1086   -0.8405  -13.9407 C   0  0  0  0  0  0  0  0  0  0  0  0
  -13.7358   -0.8566  -13.6656 C   0  0  0  0  0  0  0  0  0  0  0  0
  -12.9851    0.3091  -13.7509 C   0  0  0  0  0  0  0  0  0  0  0  0
  -11.6707    0.2859  -13.3824 O   0  0  0  0  0  0  0  0  0  0  0  0
  -13.5651    1.5083  -14.1645 C   0  0  0  0  0  0  0  0  0  0  0  0
  -12.7991    2.7982  -14.1681 C   0  0  0  0  0  0  0  0  0  0  0  0
  -14.9155    1.5047  -14.5511 C   0  0  0  0  0  0  0  0  0  0  0  0
  -15.6819    0.3410  -14.4348 C   0  0  0  0  0  0  0  0  0  0  0  0
  -17.3595    0.4037  -14.8469 Cl  0  0  0  0  0  0  0  0  0  0  0  0
  -11.4991   -0.5552  -12.9259 H   0  0  0  0  0  0  0  0  0  0  0  0
  -14.8584   -6.5202  -15.4095 O   0  0  0  0  0  0  0  0  0  0  0  0
  -13.6061   -6.8342  -15.9884 C   0  0  0  0  0  0  0  0  0  0  0  0
 11 12  1  0  0  0
 12  1  1  0  0  0
  1  2  1  0  0  0
  1 10  2  0  0  0
  2  3  2  0  0  0
  3  4  1  0  0  0
  3  8  1  0  0  0
  4  5  2  0  0  0
  5  6  1  0  0  0
  6  7  2  0  0  0
  7 13  1  0  0  0
  7  8  1  0  0  0
 13 15  1  0  0  0
 13 14  1  0  0  0
 15 16  1  0  0  0
 15 22  2  0  0  0
 16 17  2  0  0  0
 17 18  1  0  0  0
 17 19  1  0  0  0
 18 24  1  0  0  0
 19 20  1  0  0  0
 19 21  2  0  0  0
 21 22  1  0  0  0
 22 23  1  0  0  0
  8  9  2  0  0  0
  9 10  1  0  0  0
 10 25  1  0  0  0
 25 26  1  0  0  0
M  END
> <minimizedAffinity>
-6.99426

$$$$
