CHEMBL4099329


 30 33  0  0  0  0  0  0  0  0999 V2000
  -29.6007   -6.1387   -5.3135 C   0  0  0  0  0  0  0  0  0  0  0  0
  -28.4221   -6.4555   -4.7057 N   0  0  0  0  0  0  0  0  0  0  0  0
  -27.8688   -7.6670   -4.8650 C   0  0  0  0  0  0  0  0  0  0  0  0
  -26.6763   -7.8896   -4.2020 N   0  0  0  0  0  0  0  0  0  0  0  0
  -28.3293   -8.6575   -5.6317 N   0  0  0  0  0  0  0  0  0  0  0  0
  -29.4812   -8.3702   -6.2671 C   0  0  0  0  0  0  0  0  0  0  0  0
  -30.2483   -9.1905   -7.1488 C   0  0  0  0  0  0  0  0  0  0  0  0
  -31.3488   -8.4369   -7.5166 C   0  0  0  0  0  0  0  0  0  0  0  0
  -31.2201   -7.1962   -6.9610 N   0  0  0  0  0  0  0  0  0  0  0  0
  -30.1265   -7.1461   -6.1317 C   0  0  0  0  0  0  0  0  0  0  0  0
  -26.2446   -6.9991   -3.9943 H   0  0  0  0  0  0  0  0  0  0  0  0
  -26.1244   -8.5660   -4.7105 H   0  0  0  0  0  0  0  0  0  0  0  0
  -31.8440   -6.4276   -7.1469 H   0  0  0  0  0  0  0  0  0  0  0  0
  -30.1943   -4.8662   -5.1023 N   0  0  0  0  0  0  0  0  0  0  0  0
  -31.2313   -4.8481   -4.0681 C   0  0  0  0  0  0  0  0  0  0  0  0
  -28.4185   -1.1443   -6.1922 C   0  0  0  0  0  0  0  0  0  0  0  0
  -28.3200   -2.2356   -7.0464 C   0  0  0  0  0  0  0  0  0  0  0  0
  -28.9261   -3.4545   -6.7096 C   0  0  0  0  0  0  0  0  0  0  0  0
  -29.6248   -3.6343   -5.5040 C   0  0  0  0  0  0  0  0  0  0  0  0
  -29.7001   -2.5140   -4.6562 C   0  0  0  0  0  0  0  0  0  0  0  0
  -29.1006   -1.2914   -4.9888 C   0  0  0  0  0  0  0  0  0  0  0  0
  -28.7946    1.1584   -6.5237 C   0  0  0  0  0  0  0  0  0  0  0  0
  -27.8645    0.0844   -6.4215 O   0  0  0  0  0  0  0  0  0  0  0  0
  -29.9713  -10.5943   -7.5702 C   0  0  0  0  0  0  0  0  0  0  0  0
  -29.0044  -10.5207   -8.7296 C   0  0  0  0  0  0  0  0  0  0  0  0
  -27.6340  -10.7307   -8.5182 C   0  0  0  0  0  0  0  0  0  0  0  0
  -26.7355  -10.6975   -9.5870 C   0  0  0  0  0  0  0  0  0  0  0  0
  -27.1935  -10.4441  -10.8788 C   0  0  0  0  0  0  0  0  0  0  0  0
  -28.5511  -10.2236  -11.1038 C   0  0  0  0  0  0  0  0  0  0  0  0
  -29.4518  -10.2621  -10.0360 C   0  0  0  0  0  0  0  0  0  0  0  0
 22 23  1  0  0  0
 23 16  1  0  0  0
 16 17  1  0  0  0
 16 21  2  0  0  0
 17 18  2  0  0  0
 18 19  1  0  0  0
 19 14  1  0  0  0
 19 20  2  0  0  0
 14 15  1  0  0  0
 14  1  1  0  0  0
  1  2  1  0  0  0
  1 10  2  0  0  0
  2  3  2  0  0  0
  3  4  1  0  0  0
  3  5  1  0  0  0
  4 11  1  0  0  0
  4 12  1  0  0  0
  5  6  2  0  0  0
  6  7  1  0  0  0
  6 10  1  0  0  0
  7 24  1  0  0  0
  7  8  2  0  0  0
 24 25  1  0  0  0
 25 26  1  0  0  0
 25 30  2  0  0  0
 26 27  2  0  0  0
 27 28  1  0  0  0
 28 29  2  0  0  0
 29 30  1  0  0  0
  8  9  1  0  0  0
  9 10  1  0  0  0
  9 13  1  0  0  0
 20 21  1  0  0  0
M  END
> <minimizedAffinity>
-8.48674

$$$$
