CHEMBL3921652


 39 42  0  0  0  0  0  0  0  0999 V2000
  -30.7725   -6.2498   -5.0891 C   0  0  0  0  0  0  0  0  0  0  0  0
  -31.3199   -6.1009   -3.8615 N   0  0  0  0  0  0  0  0  0  0  0  0
  -31.2940   -4.8773   -3.2913 C   0  0  0  0  0  0  0  0  0  0  0  0
  -30.7793   -3.7347   -3.7826 N   0  0  0  0  0  0  0  0  0  0  0  0
  -30.2562   -3.9284   -5.0019 C   0  0  0  0  0  0  0  0  0  0  0  0
  -29.6236   -2.9717   -5.7501 N   0  0  0  0  0  0  0  0  0  0  0  0
  -29.1720   -3.5070   -6.9396 C   0  0  0  0  0  0  0  0  0  0  0  0
  -29.5645   -4.8398   -6.9333 C   0  0  0  0  0  0  0  0  0  0  0  0
  -30.2288   -5.1146   -5.7099 C   0  0  0  0  0  0  0  0  0  0  0  0
  -29.4646   -2.0301   -5.4270 H   0  0  0  0  0  0  0  0  0  0  0  0
  -28.3761   -2.7732   -7.9268 C   0  0  0  0  0  0  0  0  0  0  0  0
  -27.9784   -3.4258   -9.0955 C   0  0  0  0  0  0  0  0  0  0  0  0
  -27.2236   -2.7705  -10.0717 C   0  0  0  0  0  0  0  0  0  0  0  0
  -26.8482   -1.4390   -9.9116 C   0  0  0  0  0  0  0  0  0  0  0  0
  -27.2424   -0.7730   -8.7431 C   0  0  0  0  0  0  0  0  0  0  0  0
  -27.9975   -1.4367   -7.7570 C   0  0  0  0  0  0  0  0  0  0  0  0
  -26.0965   -0.7259  -10.8735 N   0  0  0  0  0  0  0  0  0  0  0  0
  -24.7952   -0.9957  -11.2604 C   0  0  0  0  0  0  0  0  0  0  0  0
  -24.0689   -1.8872  -10.8288 O   0  0  0  0  0  0  0  0  0  0  0  0
  -26.5794    0.0314  -11.3472 H   0  0  0  0  0  0  0  0  0  0  0  0
  -24.2758   -0.0831  -12.3528 C   0  0  0  0  0  0  0  0  0  0  0  0
  -22.7615   -0.2478  -12.5172 C   0  0  0  0  0  0  0  0  0  0  0  0
  -22.2683    0.0436  -13.9348 C   0  0  0  0  0  0  0  0  0  0  0  0
  -21.6606    1.4226  -14.0165 C   0  0  0  0  0  0  0  0  0  0  0  0
  -20.4493    1.6123  -14.1227 O   0  0  0  0  0  0  0  0  0  0  0  0
  -22.5746    2.4431  -14.0650 N   0  0  0  0  0  0  0  0  0  0  0  0
  -22.0445    3.7513  -14.1082 O   0  0  0  0  0  0  0  0  0  0  0  0
  -23.5434    2.3508  -13.7778 H   0  0  0  0  0  0  0  0  0  0  0  0
  -21.0761    3.5884  -14.1182 H   0  0  0  0  0  0  0  0  0  0  0  0
  -30.7117   -7.4931   -5.7196 N   0  0  0  0  0  0  0  0  0  0  0  0
  -29.7318   -7.7656   -5.7623 H   0  0  0  0  0  0  0  0  0  0  0  0
  -32.7387   -8.1891   -6.9568 C   0  0  0  0  0  0  0  0  0  0  0  0
  -31.3258   -7.5979   -7.0458 C   0  0  0  0  0  0  0  0  0  0  0  0
  -30.4358   -8.5069   -7.8896 C   0  0  0  0  0  0  0  0  0  0  0  0
  -30.9081   -9.7473   -8.3436 C   0  0  0  0  0  0  0  0  0  0  0  0
  -30.1020  -10.5653   -9.1399 C   0  0  0  0  0  0  0  0  0  0  0  0
  -28.8158  -10.1567   -9.4898 C   0  0  0  0  0  0  0  0  0  0  0  0
  -28.3285   -8.9333   -9.0383 C   0  0  0  0  0  0  0  0  0  0  0  0
  -29.1317   -8.1152   -8.2435 C   0  0  0  0  0  0  0  0  0  0  0  0
 32 33  1  0  0  0
 33 30  1  0  0  0
 33 34  1  0  0  0
 30  1  1  0  0  0
 30 31  1  0  0  0
  1  2  1  0  0  0
  1  9  2  0  0  0
  2  3  2  0  0  0
  3  4  1  0  0  0
  4  5  2  0  0  0
  5  6  1  0  0  0
  5  9  1  0  0  0
  6  7  1  0  0  0
  6 10  1  0  0  0
  7 11  1  0  0  0
  7  8  2  0  0  0
 11 12  1  0  0  0
 11 16  2  0  0  0
 12 13  2  0  0  0
 13 14  1  0  0  0
 14 17  1  0  0  0
 14 15  2  0  0  0
 17 18  1  0  0  0
 17 20  1  0  0  0
 18 19  2  0  0  0
 18 21  1  0  0  0
 21 22  1  0  0  0
 22 23  1  0  0  0
 23 24  1  0  0  0
 24 25  2  0  0  0
 24 26  1  0  0  0
 26 27  1  0  0  0
 26 28  1  0  0  0
 27 29  1  0  0  0
 15 16  1  0  0  0
  8  9  1  0  0  0
 34 35  1  0  0  0
 34 39  2  0  0  0
 35 36  2  0  0  0
 36 37  1  0  0  0
 37 38  2  0  0  0
 38 39  1  0  0  0
M  END
> <minimizedAffinity>
-8.98293

$$$$
