CHEMBL4464066


 29 32  0  0  0  0  0  0  0  0999 V2000
  -26.3789   -2.0095  -11.1305 C   0  0  0  0  0  0  0  0  0  0  0  0
  -26.8774   -2.1841  -12.4294 C   0  0  0  0  0  0  0  0  0  0  0  0
  -26.2398   -1.6548  -13.5535 C   0  0  0  0  0  0  0  0  0  0  0  0
  -25.0760   -0.9376  -13.3142 C   0  0  0  0  0  0  0  0  0  0  0  0
  -24.1914   -0.3310  -14.1602 N   0  0  0  0  0  0  0  0  0  0  0  0
  -23.1839    0.2355  -13.4158 C   0  0  0  0  0  0  0  0  0  0  0  0
  -23.3910    0.0138  -12.1287 N   0  0  0  0  0  0  0  0  0  0  0  0
  -24.5614   -0.7055  -12.0476 C   0  0  0  0  0  0  0  0  0  0  0  0
  -25.2355   -1.2201  -10.9248 C   0  0  0  0  0  0  0  0  0  0  0  0
  -24.2475   -0.3353  -15.1669 H   0  0  0  0  0  0  0  0  0  0  0  0
  -22.0542    0.9457  -14.0147 C   0  0  0  0  0  0  0  0  0  0  0  0
  -21.9886    2.3481  -14.0148 C   0  0  0  0  0  0  0  0  0  0  0  0
  -20.8930    3.0097  -14.5766 C   0  0  0  0  0  0  0  0  0  0  0  0
  -19.8571    2.2730  -15.1458 C   0  0  0  0  0  0  0  0  0  0  0  0
  -18.5023    3.0896  -15.8205 Cl  0  0  0  0  0  0  0  0  0  0  0  0
  -19.9097    0.8813  -15.1619 C   0  0  0  0  0  0  0  0  0  0  0  0
  -21.0037    0.2209  -14.5939 C   0  0  0  0  0  0  0  0  0  0  0  0
  -27.9325   -0.7421   -9.0099 O   0  0  0  0  0  0  0  0  0  0  0  0
  -27.6898   -1.9434   -9.0320 C   0  0  0  0  0  0  0  0  0  0  0  0
  -26.9809   -2.6279  -10.0057 N   0  0  0  0  0  0  0  0  0  0  0  0
  -27.0561   -3.6378  -10.0297 H   0  0  0  0  0  0  0  0  0  0  0  0
  -28.2710   -2.7471   -7.9321 C   0  0  0  0  0  0  0  0  0  0  0  0
  -29.0626   -3.8497   -8.2869 C   0  0  0  0  0  0  0  0  0  0  0  0
  -29.7350   -4.5768   -7.3087 C   0  0  0  0  0  0  0  0  0  0  0  0
  -29.6309   -4.2029   -5.9663 C   0  0  0  0  0  0  0  0  0  0  0  0
  -30.5269   -5.1251   -4.8164 Cl  0  0  0  0  0  0  0  0  0  0  0  0
  -28.8366   -3.1018   -5.6106 C   0  0  0  0  0  0  0  0  0  0  0  0
  -28.6720   -2.5073   -3.8135 Br  0  0  0  0  0  0  0  0  0  0  0  0
  -28.1507   -2.3734   -6.5920 C   0  0  0  0  0  0  0  0  0  0  0  0
 18 19  2  0  0  0
 19 20  1  0  0  0
 19 22  1  0  0  0
 20  1  1  0  0  0
 20 21  1  0  0  0
  1  2  1  0  0  0
  1  9  2  0  0  0
  2  3  2  0  0  0
  3  4  1  0  0  0
  4  5  1  0  0  0
  4  8  2  0  0  0
  5  6  1  0  0  0
  5 10  1  0  0  0
  6 11  1  0  0  0
  6  7  2  0  0  0
 11 12  1  0  0  0
 11 17  2  0  0  0
 12 13  2  0  0  0
 13 14  1  0  0  0
 14 15  1  0  0  0
 14 16  2  0  0  0
 16 17  1  0  0  0
  7  8  1  0  0  0
  8  9  1  0  0  0
 22 23  1  0  0  0
 22 29  2  0  0  0
 23 24  2  0  0  0
 24 25  1  0  0  0
 25 26  1  0  0  0
 25 27  2  0  0  0
 27 28  1  0  0  0
 27 29  1  0  0  0
M  END
> <minimizedAffinity>
-11.48527

$$$$
