CHEMBL366452


 32 36  0  0  0  0  0  0  0  0999 V2000
  -14.6310    3.6178  -16.9111 C   0  0  0  0  0  0  0  0  0  0  0  0
  -14.9211    2.2471  -16.8123 C   0  0  0  0  0  0  0  0  0  0  0  0
  -16.1492    1.8124  -16.3230 C   0  0  0  0  0  0  0  0  0  0  0  0
  -17.0797    2.7438  -15.8615 C   0  0  0  0  0  0  0  0  0  0  0  0
  -16.7807    4.1094  -15.8997 C   0  0  0  0  0  0  0  0  0  0  0  0
  -15.5698    4.5454  -16.4389 C   0  0  0  0  0  0  0  0  0  0  0  0
  -18.3775    2.2872  -15.3583 C   0  0  0  0  0  0  0  0  0  0  0  0
  -18.6814    0.8715  -15.1841 C   0  0  0  0  0  0  0  0  0  0  0  0
  -19.9011    0.5070  -14.7608 C   0  0  0  0  0  0  0  0  0  0  0  0
  -20.8499    1.4846  -14.4422 N   0  0  0  0  0  0  0  0  0  0  0  0
  -22.1448    1.3849  -13.9423 C   0  0  0  0  0  0  0  0  0  0  0  0
  -22.5786    2.7037  -13.8848 C   0  0  0  0  0  0  0  0  0  0  0  0
  -21.6224    3.5902  -14.2853 N   0  0  0  0  0  0  0  0  0  0  0  0
  -20.5885    2.8471  -14.6022 C   0  0  0  0  0  0  0  0  0  0  0  0
  -19.3043    3.2277  -15.0780 C   0  0  0  0  0  0  0  0  0  0  0  0
  -22.8714    0.1713  -13.5455 C   0  0  0  0  0  0  0  0  0  0  0  0
  -22.6413   -0.4844  -12.3287 C   0  0  0  0  0  0  0  0  0  0  0  0
  -23.3940   -1.5999  -11.9541 C   0  0  0  0  0  0  0  0  0  0  0  0
  -24.4255   -2.0500  -12.7705 C   0  0  0  0  0  0  0  0  0  0  0  0
  -24.6814   -1.4067  -13.9770 C   0  0  0  0  0  0  0  0  0  0  0  0
  -23.9009   -0.3156  -14.3673 C   0  0  0  0  0  0  0  0  0  0  0  0
  -13.3360    4.0791  -17.5465 C   0  0  0  0  0  0  0  0  0  0  0  0
  -12.4470    7.0167  -19.6614 N   0  0  0  0  0  0  0  0  0  0  0  0
  -11.5035    5.9076  -19.3315 C   0  0  0  0  0  0  0  0  0  0  0  0
  -12.1015    4.5215  -19.6570 C   0  0  0  0  0  0  0  0  0  0  0  0
  -13.4041    4.2456  -19.0107 N   0  0  0  0  0  0  0  0  0  0  0  0
  -14.3271    5.3497  -19.3756 C   0  0  0  0  0  0  0  0  0  0  0  0
  -13.7967    6.7661  -19.0579 C   0  0  0  0  0  0  0  0  0  0  0  0
  -14.0673    8.3255  -21.3972 C   0  0  0  0  0  0  0  0  0  0  0  0
  -12.4539    7.5741  -21.2684 S   0  0  0  0  0  0  0  0  0  0  0  0
  -12.4521    6.4216  -22.1361 O   0  0  0  0  0  0  0  0  0  0  0  0
  -11.4576    8.6155  -21.4004 O   0  0  0  0  0  0  0  0  0  0  0  0
 29 30  1  0  0  0
 30 31  2  0  0  0
 30 32  2  0  0  0
 30 23  1  0  0  0
 23 24  1  0  0  0
 23 28  1  0  0  0
 24 25  1  0  0  0
 25 26  1  0  0  0
 26 22  1  0  0  0
 26 27  1  0  0  0
 22  1  1  0  0  0
  1  2  1  0  0  0
  1  6  2  0  0  0
  2  3  2  0  0  0
  3  4  1  0  0  0
  4  7  1  0  0  0
  4  5  2  0  0  0
  7  8  1  0  0  0
  7 15  2  0  0  0
  8  9  2  0  0  0
  9 10  1  0  0  0
 10 11  1  0  0  0
 10 14  1  0  0  0
 11 16  1  0  0  0
 11 12  2  0  0  0
 16 17  1  0  0  0
 16 21  2  0  0  0
 17 18  2  0  0  0
 18 19  1  0  0  0
 19 20  2  0  0  0
 20 21  1  0  0  0
 12 13  1  0  0  0
 13 14  2  0  0  0
 14 15  1  0  0  0
  5  6  1  0  0  0
 27 28  1  0  0  0
M  END
> <minimizedAffinity>
-9.83022

$$$$
