CHEMBL3895890


 37 41  0  0  0  0  0  0  0  0999 V2000
  -14.6009   -0.8641  -14.2164 C   0  0  0  0  0  0  0  0  0  0  0  0
  -13.9415   -2.0042  -13.7239 C   0  0  0  0  0  0  0  0  0  0  0  0
  -14.2645   -2.5673  -12.4647 C   0  0  0  0  0  0  0  0  0  0  0  0
  -13.6330   -3.6606  -11.8530 C   0  0  0  0  0  0  0  0  0  0  0  0
  -14.0478   -4.1641  -10.6715 N   0  0  0  0  0  0  0  0  0  0  0  0
  -15.0846   -3.5692  -10.0871 C   0  0  0  0  0  0  0  0  0  0  0  0
  -15.7405   -2.5136  -10.5637 N   0  0  0  0  0  0  0  0  0  0  0  0
  -15.3212   -2.0345  -11.7334 C   0  0  0  0  0  0  0  0  0  0  0  0
  -15.9825   -0.9340  -12.2414 C   0  0  0  0  0  0  0  0  0  0  0  0
  -15.6146   -0.2956  -13.4422 C   0  0  0  0  0  0  0  0  0  0  0  0
  -13.1701    0.5138  -15.5691 C   0  0  0  0  0  0  0  0  0  0  0  0
  -14.1534   -0.5013  -15.4527 O   0  0  0  0  0  0  0  0  0  0  0  0
  -12.4984   -4.2554  -12.4686 N   0  0  0  0  0  0  0  0  0  0  0  0
  -11.7111   -4.2053  -11.8291 H   0  0  0  0  0  0  0  0  0  0  0  0
  -12.5705   -5.4749  -13.1772 C   0  0  0  0  0  0  0  0  0  0  0  0
  -12.6890   -5.4646  -14.5746 C   0  0  0  0  0  0  0  0  0  0  0  0
  -12.8474   -6.6486  -15.2931 C   0  0  0  0  0  0  0  0  0  0  0  0
  -12.8828   -7.8678  -14.6184 C   0  0  0  0  0  0  0  0  0  0  0  0
  -13.1319   -9.2941  -15.5599 Cl  0  0  0  0  0  0  0  0  0  0  0  0
  -12.7320   -7.8958  -13.2273 C   0  0  0  0  0  0  0  0  0  0  0  0
  -12.7637   -9.3731  -12.3288 Cl  0  0  0  0  0  0  0  0  0  0  0  0
  -12.5670   -6.7032  -12.5099 C   0  0  0  0  0  0  0  0  0  0  0  0
  -16.2527    0.8623  -13.8420 O   0  0  0  0  0  0  0  0  0  0  0  0
  -17.3033    0.5978  -14.7866 C   0  0  0  0  0  0  0  0  0  0  0  0
  -18.6197    1.3056  -14.5047 C   0  0  0  0  0  0  0  0  0  0  0  0
  -19.7684    0.7858  -15.3807 C   0  0  0  0  0  0  0  0  0  0  0  0
  -21.0731    1.3337  -14.9377 N   0  0  0  0  0  0  0  0  0  0  0  0
  -20.9426    2.8169  -14.9841 C   0  0  0  0  0  0  0  0  0  0  0  0
  -19.7033    3.3800  -14.2456 C   0  0  0  0  0  0  0  0  0  0  0  0
  -18.4868    2.7292  -14.6461 O   0  0  0  0  0  0  0  0  0  0  0  0
  -21.4766    0.8956  -13.5834 C   0  0  0  0  0  0  0  0  0  0  0  0
  -22.3955   -0.3519  -13.4847 C   0  0  0  0  0  0  0  0  0  0  0  0
  -23.6895   -0.1774  -14.2961 C   0  0  0  0  0  0  0  0  0  0  0  0
  -24.6980   -1.3019  -14.0511 C   0  0  0  0  0  0  0  0  0  0  0  0
  -24.9844   -1.4949  -12.5666 C   0  0  0  0  0  0  0  0  0  0  0  0
  -23.6959   -1.7666  -11.8027 C   0  0  0  0  0  0  0  0  0  0  0  0
  -22.6963   -0.6321  -11.9977 C   0  0  0  0  0  0  0  0  0  0  0  0
 11 12  1  0  0  0
 12  1  1  0  0  0
  1  2  1  0  0  0
  1 10  2  0  0  0
  2  3  2  0  0  0
  3  4  1  0  0  0
  3  8  1  0  0  0
  4 13  1  0  0  0
  4  5  2  0  0  0
 13 15  1  0  0  0
 13 14  1  0  0  0
 15 16  1  0  0  0
 15 22  2  0  0  0
 16 17  2  0  0  0
 17 18  1  0  0  0
 18 19  1  0  0  0
 18 20  2  0  0  0
 20 21  1  0  0  0
 20 22  1  0  0  0
  5  6  1  0  0  0
  6  7  2  0  0  0
  7  8  1  0  0  0
  8  9  2  0  0  0
  9 10  1  0  0  0
 10 23  1  0  0  0
 23 24  1  0  0  0
 24 25  1  0  0  0
 25 26  1  0  0  0
 25 30  1  0  0  0
 26 27  1  0  0  0
 27 31  1  0  0  0
 27 28  1  0  0  0
 31 32  1  0  0  0
 32 33  1  0  0  0
 32 37  1  0  0  0
 33 34  1  0  0  0
 34 35  1  0  0  0
 35 36  1  0  0  0
 36 37  1  0  0  0
 28 29  1  0  0  0
 29 30  1  0  0  0
M  END
> <minimizedAffinity>
-9.14882

$$$$
