CHEMBL271154


 47 52  0  0  0  0  0  0  0  0999 V2000
  -23.2877    0.4415  -13.9836 N   0  0  0  0  0  0  0  0  0  0  0  0
  -23.4299   -0.5233  -13.0046 C   0  0  0  0  0  0  0  0  0  0  0  0
  -22.5469   -0.8758  -12.2309 O   0  0  0  0  0  0  0  0  0  0  0  0
  -24.0778    0.6120  -14.5874 H   0  0  0  0  0  0  0  0  0  0  0  0
  -24.7858   -1.1289  -12.8582 C   0  0  0  0  0  0  0  0  0  0  0  0
  -25.1543   -1.5008  -11.5500 C   0  0  0  0  0  0  0  0  0  0  0  0
  -26.4137   -2.0362  -11.2532 C   0  0  0  0  0  0  0  0  0  0  0  0
  -27.3131   -2.2114  -12.3055 C   0  0  0  0  0  0  0  0  0  0  0  0
  -26.9526   -1.8756  -13.6167 C   0  0  0  0  0  0  0  0  0  0  0  0
  -25.6932   -1.3394  -13.8964 C   0  0  0  0  0  0  0  0  0  0  0  0
  -25.3330   -1.0202  -15.5591 Cl  0  0  0  0  0  0  0  0  0  0  0  0
  -26.8244   -2.4150   -9.9480 N   0  0  0  0  0  0  0  0  0  0  0  0
  -27.6898   -1.6924   -9.1445 C   0  0  0  0  0  0  0  0  0  0  0  0
  -28.2722   -0.6667   -9.4830 O   0  0  0  0  0  0  0  0  0  0  0  0
  -26.4751   -3.2997   -9.6071 H   0  0  0  0  0  0  0  0  0  0  0  0
  -27.9498   -2.1626   -7.7520 C   0  0  0  0  0  0  0  0  0  0  0  0
  -27.7105   -1.3984   -6.5895 C   0  0  0  0  0  0  0  0  0  0  0  0
  -28.1730   -1.8464   -5.3389 C   0  0  0  0  0  0  0  0  0  0  0  0
  -28.8921   -3.0242   -5.2975 C   0  0  0  0  0  0  0  0  0  0  0  0
  -29.0928   -3.7861   -6.4231 C   0  0  0  0  0  0  0  0  0  0  0  0
  -28.6106   -3.4011   -7.6487 C   0  0  0  0  0  0  0  0  0  0  0  0
  -29.8630   -4.8812   -6.1873 O   0  0  0  0  0  0  0  0  0  0  0  0
  -30.3043   -4.5667   -4.8638 C   0  0  0  0  0  0  0  0  0  0  0  0
  -31.5919   -4.1430   -4.9333 F   0  0  0  0  0  0  0  0  0  0  0  0
  -30.2813   -5.6923   -4.1123 F   0  0  0  0  0  0  0  0  0  0  0  0
  -29.5250   -3.5466   -4.2110 O   0  0  0  0  0  0  0  0  0  0  0  0
  -19.9342    2.8035  -14.5722 C   0  0  0  0  0  0  0  0  0  0  0  0
  -19.8551    1.5037  -14.8993 N   0  0  0  0  0  0  0  0  0  0  0  0
  -20.9481    0.7361  -14.7326 C   0  0  0  0  0  0  0  0  0  0  0  0
  -22.1330    1.2107  -14.2263 C   0  0  0  0  0  0  0  0  0  0  0  0
  -22.1181    2.5619  -13.9292 C   0  0  0  0  0  0  0  0  0  0  0  0
  -21.0486    3.3764  -14.0948 N   0  0  0  0  0  0  0  0  0  0  0  0
  -18.7986    3.6067  -14.7190 N   0  0  0  0  0  0  0  0  0  0  0  0
  -19.0952    4.5464  -14.9426 H   0  0  0  0  0  0  0  0  0  0  0  0
  -15.3130    2.3033  -16.7875 C   0  0  0  0  0  0  0  0  0  0  0  0
  -15.7192    3.6424  -16.8100 C   0  0  0  0  0  0  0  0  0  0  0  0
  -16.8435    4.0849  -16.1101 C   0  0  0  0  0  0  0  0  0  0  0  0
  -17.6267    3.1943  -15.3757 C   0  0  0  0  0  0  0  0  0  0  0  0
  -17.1962    1.8745  -15.2712 C   0  0  0  0  0  0  0  0  0  0  0  0
  -16.0682    1.4362  -15.9827 C   0  0  0  0  0  0  0  0  0  0  0  0
  -12.2510    1.0478  -21.2289 C   0  0  0  0  0  0  0  0  0  0  0  0
  -12.5425    1.1766  -19.8049 N   0  0  0  0  0  0  0  0  0  0  0  0
  -12.8370    2.5850  -19.4550 C   0  0  0  0  0  0  0  0  0  0  0  0
  -13.1477    2.7529  -17.9515 C   0  0  0  0  0  0  0  0  0  0  0  0
  -14.2560    1.8692  -17.5578 N   0  0  0  0  0  0  0  0  0  0  0  0
  -14.0721    0.4583  -17.9252 C   0  0  0  0  0  0  0  0  0  0  0  0
  -13.7068    0.3421  -19.4272 C   0  0  0  0  0  0  0  0  0  0  0  0
 41 42  1  0  0  0
 42 43  1  0  0  0
 42 47  1  0  0  0
 43 44  1  0  0  0
 44 45  1  0  0  0
 45 35  1  0  0  0
 45 46  1  0  0  0
 35 36  1  0  0  0
 35 40  2  0  0  0
 36 37  2  0  0  0
 37 38  1  0  0  0
 38 33  1  0  0  0
 38 39  2  0  0  0
 33 27  1  0  0  0
 33 34  1  0  0  0
 27 28  1  0  0  0
 27 32  2  0  0  0
 28 29  2  0  0  0
 29 30  1  0  0  0
 30  1  1  0  0  0
 30 31  2  0  0  0
  1  2  1  0  0  0
  1  4  1  0  0  0
  2  3  2  0  0  0
  2  5  1  0  0  0
  5  6  1  0  0  0
  5 10  2  0  0  0
  6  7  2  0  0  0
  7 12  1  0  0  0
  7  8  1  0  0  0
 12 13  1  0  0  0
 12 15  1  0  0  0
 13 14  2  0  0  0
 13 16  1  0  0  0
 16 17  1  0  0  0
 16 21  2  0  0  0
 17 18  2  0  0  0
 18 19  1  0  0  0
 19 20  2  0  0  0
 19 26  1  0  0  0
 20 21  1  0  0  0
 20 22  1  0  0  0
 22 23  1  0  0  0
 23 24  1  0  0  0
 23 25  1  0  0  0
 23 26  1  0  0  0
  8  9  2  0  0  0
  9 10  1  0  0  0
 10 11  1  0  0  0
 31 32  1  0  0  0
 39 40  1  0  0  0
 46 47  1  0  0  0
M  END
> <minimizedAffinity>
-12.89100

$$$$
