CHEMBL359084


 33 38  0  0  0  0  0  0  0  0999 V2000
  -26.8591   -1.9987  -10.3509 C   0  0  0  0  0  0  0  0  0  0  0  0
  -26.9646   -0.8155   -9.6075 C   0  0  0  0  0  0  0  0  0  0  0  0
  -27.6181   -0.7699   -8.3942 C   0  0  0  0  0  0  0  0  0  0  0  0
  -28.1931   -1.9421   -7.9215 C   0  0  0  0  0  0  0  0  0  0  0  0
  -28.0645   -3.1681   -8.6271 C   0  0  0  0  0  0  0  0  0  0  0  0
  -27.3699   -3.1931   -9.8388 C   0  0  0  0  0  0  0  0  0  0  0  0
  -28.6861   -4.0480   -7.7809 C   0  0  0  0  0  0  0  0  0  0  0  0
  -28.3178   -5.4166   -7.5616 C   0  0  0  0  0  0  0  0  0  0  0  0
  -28.4882   -5.8975   -6.1789 C   0  0  0  0  0  0  0  0  0  0  0  0
  -28.9920   -5.0130   -5.2123 C   0  0  0  0  0  0  0  0  0  0  0  0
  -29.9614   -4.2760   -5.8765 C   0  0  0  0  0  0  0  0  0  0  0  0
  -29.4749   -3.4501   -6.8452 C   0  0  0  0  0  0  0  0  0  0  0  0
  -28.8581   -2.2092   -6.7161 N   0  0  0  0  0  0  0  0  0  0  0  0
  -31.2697   -4.4362   -5.2390 C   0  0  0  0  0  0  0  0  0  0  0  0
  -30.7529   -4.2488   -3.8411 C   0  0  0  0  0  0  0  0  0  0  0  0
  -31.2611   -3.1742   -3.1035 C   0  0  0  0  0  0  0  0  0  0  0  0
  -30.3826   -2.4668   -2.3079 C   0  0  0  0  0  0  0  0  0  0  0  0
  -29.0531   -2.9038   -2.1905 C   0  0  0  0  0  0  0  0  0  0  0  0
  -28.5586   -4.0351   -2.9060 C   0  0  0  0  0  0  0  0  0  0  0  0
  -29.3958   -4.7319   -3.8089 C   0  0  0  0  0  0  0  0  0  0  0  0
  -28.4944   -7.3358   -6.2613 C   0  0  0  0  0  0  0  0  0  0  0  0
  -28.7477   -8.2066   -5.4557 O   0  0  0  0  0  0  0  0  0  0  0  0
  -28.3130   -7.6163   -7.6394 N   0  0  0  0  0  0  0  0  0  0  0  0
  -28.1548   -6.4827   -8.5370 C   0  0  0  0  0  0  0  0  0  0  0  0
  -28.6221   -8.5158   -7.9787 H   0  0  0  0  0  0  0  0  0  0  0  0
  -27.2118   -1.9528  -12.8969 C   0  0  0  0  0  0  0  0  0  0  0  0
  -26.2756   -1.9809  -11.7162 C   0  0  0  0  0  0  0  0  0  0  0  0
  -25.0548   -2.0183  -11.8694 O   0  0  0  0  0  0  0  0  0  0  0  0
  -28.5138   -1.6136   -5.4143 C   0  0  0  0  0  0  0  0  0  0  0  0
  -29.1277   -0.2816   -4.9891 C   0  0  0  0  0  0  0  0  0  0  0  0
  -28.1166    0.8616   -4.9345 C   0  0  0  0  0  0  0  0  0  0  0  0
  -28.1383    1.5642   -6.1726 O   0  0  0  0  0  0  0  0  0  0  0  0
  -27.8399    0.9562   -6.8720 H   0  0  0  0  0  0  0  0  0  0  0  0
 26 27  1  0  0  0
 27 28  2  0  0  0
 27  1  1  0  0  0
  1  2  1  0  0  0
  1  6  2  0  0  0
  2  3  2  0  0  0
  3  4  1  0  0  0
  4  5  2  0  0  0
  4 13  1  0  0  0
  5  6  1  0  0  0
  5  7  1  0  0  0
  7  8  1  0  0  0
  7 12  2  0  0  0
  8  9  2  0  0  0
  8 24  1  0  0  0
  9 10  1  0  0  0
  9 21  1  0  0  0
 10 11  2  0  0  0
 10 20  1  0  0  0
 11 12  1  0  0  0
 11 14  1  0  0  0
 12 13  1  0  0  0
 13 29  1  0  0  0
 29 30  1  0  0  0
 30 31  1  0  0  0
 31 32  1  0  0  0
 32 33  1  0  0  0
 14 15  1  0  0  0
 15 16  1  0  0  0
 15 20  2  0  0  0
 16 17  2  0  0  0
 17 18  1  0  0  0
 18 19  2  0  0  0
 19 20  1  0  0  0
 21 22  2  0  0  0
 21 23  1  0  0  0
 23 24  1  0  0  0
 23 25  1  0  0  0
M  END
> <minimizedAffinity>
-7.40578

$$$$
