CHEMBL68888


 32 36  0  0  0  0  0  0  0  0999 V2000
  -30.4612   -8.7369   -6.4425 C   0  0  0  0  0  0  0  0  0  0  0  0
  -29.5174   -7.8865   -5.8717 C   0  0  0  0  0  0  0  0  0  0  0  0
  -28.4669   -8.7261   -5.3455 C   0  0  0  0  0  0  0  0  0  0  0  0
  -27.2335   -8.5617   -4.6789 C   0  0  0  0  0  0  0  0  0  0  0  0
  -26.6830   -7.3480   -4.2859 N   0  0  0  0  0  0  0  0  0  0  0  0
  -26.5028   -9.6524   -4.3725 N   0  0  0  0  0  0  0  0  0  0  0  0
  -26.9716  -10.8557   -4.7033 C   0  0  0  0  0  0  0  0  0  0  0  0
  -28.1308  -11.1456   -5.3072 N   0  0  0  0  0  0  0  0  0  0  0  0
  -28.8351  -10.0424   -5.6098 C   0  0  0  0  0  0  0  0  0  0  0  0
  -30.0497  -10.0408   -6.2513 N   0  0  0  0  0  0  0  0  0  0  0  0
  -27.3589   -6.6669   -3.9645 H   0  0  0  0  0  0  0  0  0  0  0  0
  -25.8948   -7.5036   -3.6691 H   0  0  0  0  0  0  0  0  0  0  0  0
  -29.6380   -6.4202   -5.8740 C   0  0  0  0  0  0  0  0  0  0  0  0
  -29.1195   -5.6487   -6.9209 C   0  0  0  0  0  0  0  0  0  0  0  0
  -29.2707   -4.2627   -6.9334 C   0  0  0  0  0  0  0  0  0  0  0  0
  -30.0772   -3.6386   -5.9845 C   0  0  0  0  0  0  0  0  0  0  0  0
  -30.5564   -4.3816   -4.9097 C   0  0  0  0  0  0  0  0  0  0  0  0
  -30.2935   -5.7534   -4.8326 C   0  0  0  0  0  0  0  0  0  0  0  0
  -30.4261   -2.3077   -6.0146 O   0  0  0  0  0  0  0  0  0  0  0  0
  -29.4956   -1.3599   -5.6419 C   0  0  0  0  0  0  0  0  0  0  0  0
  -28.1536   -1.6431   -5.3635 C   0  0  0  0  0  0  0  0  0  0  0  0
  -27.3105   -0.6382   -4.8910 C   0  0  0  0  0  0  0  0  0  0  0  0
  -27.7848    0.6666   -4.7738 C   0  0  0  0  0  0  0  0  0  0  0  0
  -29.0968    0.9681   -5.1405 C   0  0  0  0  0  0  0  0  0  0  0  0
  -29.9530   -0.0449   -5.5727 C   0  0  0  0  0  0  0  0  0  0  0  0
  -30.7607  -11.2017   -6.7532 C   0  0  0  0  0  0  0  0  0  0  0  0
  -30.8627  -11.3767   -8.2677 C   0  0  0  0  0  0  0  0  0  0  0  0
  -31.9492  -12.4436   -8.4332 C   0  0  0  0  0  0  0  0  0  0  0  0
  -32.7444  -12.4657   -7.1234 C   0  0  0  0  0  0  0  0  0  0  0  0
  -32.2112  -11.3071   -6.2915 C   0  0  0  0  0  0  0  0  0  0  0  0
  -32.6533   -8.1046   -7.6614 N   0  0  0  0  0  0  0  0  0  0  0  0
  -31.6569   -8.3964   -7.1432 C   0  0  0  0  0  0  0  0  0  0  0  0
 31 32  3  0  0  0
 32  1  1  0  0  0
  1  2  2  0  0  0
  1 10  1  0  0  0
  2 13  1  0  0  0
  2  3  1  0  0  0
 13 14  1  0  0  0
 13 18  2  0  0  0
 14 15  2  0  0  0
 15 16  1  0  0  0
 16 19  1  0  0  0
 16 17  2  0  0  0
 19 20  1  0  0  0
 20 21  1  0  0  0
 20 25  2  0  0  0
 21 22  2  0  0  0
 22 23  1  0  0  0
 23 24  2  0  0  0
 24 25  1  0  0  0
 17 18  1  0  0  0
  3  4  1  0  0  0
  3  9  2  0  0  0
  4  5  1  0  0  0
  4  6  2  0  0  0
  5 11  1  0  0  0
  5 12  1  0  0  0
  6  7  1  0  0  0
  7  8  2  0  0  0
  8  9  1  0  0  0
  9 10  1  0  0  0
 10 26  1  0  0  0
 26 27  1  0  0  0
 26 30  1  0  0  0
 27 28  1  0  0  0
 28 29  1  0  0  0
 29 30  1  0  0  0
M  END
> <minimizedAffinity>
-8.59031

$$$$
