CHEMBL2088260


 35 38  0  0  0  0  0  0  0  0999 V2000
  -29.5709   -7.1405   -4.5618 C   0  0  0  0  0  0  0  0  0  0  0  0
  -29.2257   -5.9383   -5.1452 C   0  0  0  0  0  0  0  0  0  0  0  0
  -30.1854   -5.0017   -4.6881 C   0  0  0  0  0  0  0  0  0  0  0  0
  -31.0200   -5.5757   -3.8172 N   0  0  0  0  0  0  0  0  0  0  0  0
  -30.6279   -6.8477   -3.7499 N   0  0  0  0  0  0  0  0  0  0  0  0
  -31.1547   -7.4709   -3.1475 H   0  0  0  0  0  0  0  0  0  0  0  0
  -30.2374   -3.7304   -5.1486 N   0  0  0  0  0  0  0  0  0  0  0  0
  -30.8217   -3.0547   -4.6687 H   0  0  0  0  0  0  0  0  0  0  0  0
  -29.2288   -3.0141   -5.8162 C   0  0  0  0  0  0  0  0  0  0  0  0
  -28.5407   -1.9730   -5.2310 C   0  0  0  0  0  0  0  0  0  0  0  0
  -27.6954   -1.2611   -6.0431 C   0  0  0  0  0  0  0  0  0  0  0  0
  -27.5040   -1.5502   -7.3364 N   0  0  0  0  0  0  0  0  0  0  0  0
  -28.1741   -2.6004   -7.8187 C   0  0  0  0  0  0  0  0  0  0  0  0
  -29.0111   -3.3613   -7.1001 N   0  0  0  0  0  0  0  0  0  0  0  0
  -28.0040   -2.8204   -9.1709 N   0  0  0  0  0  0  0  0  0  0  0  0
  -28.6606   -3.5338   -9.4597 H   0  0  0  0  0  0  0  0  0  0  0  0
  -27.9306   -1.6341  -10.0116 C   0  0  0  0  0  0  0  0  0  0  0  0
  -26.8104   -1.6049  -11.0051 C   0  0  0  0  0  0  0  0  0  0  0  0
  -26.9134   -1.5923  -12.4153 C   0  0  0  0  0  0  0  0  0  0  0  0
  -25.6169   -1.5517  -12.8523 C   0  0  0  0  0  0  0  0  0  0  0  0
  -24.9913   -1.5285  -14.1833 C   0  0  0  0  0  0  0  0  0  0  0  0
  -24.7817   -1.5332  -11.7791 O   0  0  0  0  0  0  0  0  0  0  0  0
  -25.5293   -1.5608  -10.6111 N   0  0  0  0  0  0  0  0  0  0  0  0
  -28.9951   -8.5068   -4.6981 C   0  0  0  0  0  0  0  0  0  0  0  0
  -28.0385   -8.6499   -5.8890 C   0  0  0  0  0  0  0  0  0  0  0  0
  -28.7400  -10.0647   -9.3517 C   0  0  0  0  0  0  0  0  0  0  0  0
  -28.0606   -9.6463   -8.2073 C   0  0  0  0  0  0  0  0  0  0  0  0
  -28.7708   -9.1781   -7.0941 C   0  0  0  0  0  0  0  0  0  0  0  0
  -30.1697   -9.1332   -7.1356 C   0  0  0  0  0  0  0  0  0  0  0  0
  -30.8574   -9.5313   -8.2797 C   0  0  0  0  0  0  0  0  0  0  0  0
  -30.1343  -10.0085   -9.3781 C   0  0  0  0  0  0  0  0  0  0  0  0
  -28.8818  -10.3612  -11.7068 C   0  0  0  0  0  0  0  0  0  0  0  0
  -28.1511  -10.5290  -10.4981 O   0  0  0  0  0  0  0  0  0  0  0  0
  -32.2159   -9.4876   -8.4419 O   0  0  0  0  0  0  0  0  0  0  0  0
  -32.9665   -8.9260   -7.3702 C   0  0  0  0  0  0  0  0  0  0  0  0
 32 33  1  0  0  0
 33 26  1  0  0  0
 26 27  1  0  0  0
 26 31  2  0  0  0
 27 28  2  0  0  0
 28 25  1  0  0  0
 28 29  1  0  0  0
 25 24  1  0  0  0
 24  1  1  0  0  0
  1  2  2  0  0  0
  1  5  1  0  0  0
  2  3  1  0  0  0
  3  7  1  0  0  0
  3  4  2  0  0  0
  7  9  1  0  0  0
  7  8  1  0  0  0
  9 10  1  0  0  0
  9 14  2  0  0  0
 10 11  2  0  0  0
 11 12  1  0  0  0
 12 13  2  0  0  0
 13 15  1  0  0  0
 13 14  1  0  0  0
 15 17  1  0  0  0
 15 16  1  0  0  0
 17 18  1  0  0  0
 18 19  1  0  0  0
 18 23  2  0  0  0
 19 20  2  0  0  0
 20 21  1  0  0  0
 20 22  1  0  0  0
 22 23  1  0  0  0
  4  5  1  0  0  0
  5  6  1  0  0  0
 29 30  2  0  0  0
 30 34  1  0  0  0
 30 31  1  0  0  0
 34 35  1  0  0  0
M  END
> <minimizedAffinity>
-8.71365

$$$$
