CHEMBL3970373


 36 40  0  0  0  0  0  0  0  0999 V2000
  -18.4605    2.4432  -14.7043 C   0  0  0  0  0  0  0  0  0  0  0  0
  -18.0860    2.6799  -15.9675 N   0  0  0  0  0  0  0  0  0  0  0  0
  -16.8699    2.2142  -16.3064 C   0  0  0  0  0  0  0  0  0  0  0  0
  -16.0365    1.4939  -15.4726 C   0  0  0  0  0  0  0  0  0  0  0  0
  -14.5053    1.0536  -16.0963 Cl  0  0  0  0  0  0  0  0  0  0  0  0
  -16.5409    1.2194  -14.2128 C   0  0  0  0  0  0  0  0  0  0  0  0
  -17.7295    1.7340  -13.8307 N   0  0  0  0  0  0  0  0  0  0  0  0
  -19.6867    2.9622  -14.3108 N   0  0  0  0  0  0  0  0  0  0  0  0
  -19.5678    3.8883  -13.9389 H   0  0  0  0  0  0  0  0  0  0  0  0
  -22.2574    0.6234  -13.9571 N   0  0  0  0  0  0  0  0  0  0  0  0
  -20.9196    0.9038  -14.1490 C   0  0  0  0  0  0  0  0  0  0  0  0
  -20.8296    2.2620  -14.1553 C   0  0  0  0  0  0  0  0  0  0  0  0
  -22.1522    2.7200  -14.0267 C   0  0  0  0  0  0  0  0  0  0  0  0
  -23.0287    1.7089  -13.9160 N   0  0  0  0  0  0  0  0  0  0  0  0
  -25.0923   -1.3247  -10.9483 C   0  0  0  0  0  0  0  0  0  0  0  0
  -24.5183   -0.7638  -12.1598 N   0  0  0  0  0  0  0  0  0  0  0  0
  -25.1570   -1.2488  -13.3810 C   0  0  0  0  0  0  0  0  0  0  0  0
  -24.1924   -0.8179  -14.4808 C   0  0  0  0  0  0  0  0  0  0  0  0
  -22.8214   -0.7095  -13.7934 C   0  0  0  0  0  0  0  0  0  0  0  0
  -23.0917   -1.0724  -12.3288 C   0  0  0  0  0  0  0  0  0  0  0  0
  -15.9276    0.2955  -13.1613 C   0  0  0  0  0  0  0  0  0  0  0  0
  -15.8289   -1.1699  -13.5993 C   0  0  0  0  0  0  0  0  0  0  0  0
  -14.5199   -1.9266  -13.5392 C   0  0  0  0  0  0  0  0  0  0  0  0
  -13.4360   -1.5359  -14.3579 C   0  0  0  0  0  0  0  0  0  0  0  0
  -12.2303   -2.2418  -14.3514 C   0  0  0  0  0  0  0  0  0  0  0  0
  -12.1237   -3.3937  -13.5930 C   0  0  0  0  0  0  0  0  0  0  0  0
  -13.2107   -3.8291  -12.8330 C   0  0  0  0  0  0  0  0  0  0  0  0
  -14.4216   -3.0975  -12.7308 C   0  0  0  0  0  0  0  0  0  0  0  0
  -15.4303   -3.5706  -11.6340 C   0  0  0  0  0  0  0  0  0  0  0  0
  -15.8990   -2.4212  -10.7047 C   0  0  0  0  0  0  0  0  0  0  0  0
  -15.2417   -3.6115  -10.1078 C   0  0  0  0  0  0  0  0  0  0  0  0
  -16.4210   -4.6112  -12.1098 C   0  0  0  0  0  0  0  0  0  0  0  0
  -16.6830   -4.6097  -13.4606 N   0  0  0  0  0  0  0  0  0  0  0  0
  -17.0364   -5.3204  -11.3409 O   0  0  0  0  0  0  0  0  0  0  0  0
  -16.2985   -3.9184  -14.0695 H   0  0  0  0  0  0  0  0  0  0  0  0
  -17.5244   -5.0994  -13.7378 H   0  0  0  0  0  0  0  0  0  0  0  0
 15 16  1  0  0  0
 16 17  1  0  0  0
 16 20  1  0  0  0
 17 18  1  0  0  0
 18 19  1  0  0  0
 19 10  1  0  0  0
 19 20  1  0  0  0
 10 11  1  0  0  0
 10 14  1  0  0  0
 11 12  2  0  0  0
 12  8  1  0  0  0
 12 13  1  0  0  0
  8  1  1  0  0  0
  8  9  1  0  0  0
  1  2  1  0  0  0
  1  7  2  0  0  0
  2  3  2  0  0  0
  3  4  1  0  0  0
  4  5  1  0  0  0
  4  6  2  0  0  0
  6 21  1  0  0  0
  6  7  1  0  0  0
 21 22  1  0  0  0
 22 23  1  0  0  0
 23 24  1  0  0  0
 23 28  2  0  0  0
 24 25  2  0  0  0
 25 26  1  0  0  0
 26 27  2  0  0  0
 27 28  1  0  0  0
 28 29  1  0  0  0
 29 32  1  0  0  0
 29 30  1  0  0  0
 29 31  1  0  0  0
 32 33  1  0  0  0
 32 34  2  0  0  0
 33 35  1  0  0  0
 33 36  1  0  0  0
 30 31  1  0  0  0
 13 14  2  0  0  0
M  END
> <minimizedAffinity>
-8.75127

$$$$
