CHEMBL3923551


 43 47  0  0  0  0  0  0  0  0999 V2000
  -28.4610   11.1263  -15.7178 C   0  0  0  0  0  0  0  0  0  0  0  0
  -27.1269   10.7624  -15.8705 C   0  0  0  0  0  0  0  0  0  0  0  0
  -26.1252   11.2719  -15.0159 C   0  0  0  0  0  0  0  0  0  0  0  0
  -24.7526   11.0509  -15.1987 C   0  0  0  0  0  0  0  0  0  0  0  0
  -23.8385   11.5333  -14.3358 N   0  0  0  0  0  0  0  0  0  0  0  0
  -24.2926   12.2508  -13.3172 C   0  0  0  0  0  0  0  0  0  0  0  0
  -25.5677   12.5715  -13.0806 N   0  0  0  0  0  0  0  0  0  0  0  0
  -26.4756   12.0915  -13.9369 C   0  0  0  0  0  0  0  0  0  0  0  0
  -27.8138   12.4279  -13.7741 C   0  0  0  0  0  0  0  0  0  0  0  0
  -28.8149   11.9529  -14.6364 C   0  0  0  0  0  0  0  0  0  0  0  0
  -29.2006    9.6703  -17.4954 C   0  0  0  0  0  0  0  0  0  0  0  0
  -29.4336   10.7380  -16.5895 O   0  0  0  0  0  0  0  0  0  0  0  0
  -24.3073   10.3557  -16.3594 N   0  0  0  0  0  0  0  0  0  0  0  0
  -24.0690    9.4020  -16.1085 H   0  0  0  0  0  0  0  0  0  0  0  0
  -23.4312   10.8843  -17.3299 C   0  0  0  0  0  0  0  0  0  0  0  0
  -23.9420   11.4793  -18.4807 C   0  0  0  0  0  0  0  0  0  0  0  0
  -23.0831   11.8757  -19.5099 C   0  0  0  0  0  0  0  0  0  0  0  0
  -21.6991   11.7118  -19.3999 C   0  0  0  0  0  0  0  0  0  0  0  0
  -21.1797   11.2520  -18.1904 C   0  0  0  0  0  0  0  0  0  0  0  0
  -22.0414   10.8631  -17.1603 C   0  0  0  0  0  0  0  0  0  0  0  0
  -20.7987   11.9220  -20.4675 N   0  0  0  0  0  0  0  0  0  0  0  0
  -19.4702   11.5500  -20.4862 C   0  0  0  0  0  0  0  0  0  0  0  0
  -18.9326   10.8209  -19.6595 O   0  0  0  0  0  0  0  0  0  0  0  0
  -18.7802   12.1494  -21.5355 N   0  0  0  0  0  0  0  0  0  0  0  0
  -21.1601   12.3687  -21.2969 H   0  0  0  0  0  0  0  0  0  0  0  0
  -19.0909   13.0832  -21.7600 H   0  0  0  0  0  0  0  0  0  0  0  0
  -17.3990   11.8932  -21.7013 C   0  0  0  0  0  0  0  0  0  0  0  0
  -16.9526   10.8495  -22.5203 C   0  0  0  0  0  0  0  0  0  0  0  0
  -15.5960   10.5407  -22.5945 C   0  0  0  0  0  0  0  0  0  0  0  0
  -14.6789   11.2723  -21.8453 C   0  0  0  0  0  0  0  0  0  0  0  0
  -15.1164   12.3287  -21.0454 C   0  0  0  0  0  0  0  0  0  0  0  0
  -16.4735   12.6589  -20.9922 C   0  0  0  0  0  0  0  0  0  0  0  0
  -30.0857   12.4074  -14.3394 O   0  0  0  0  0  0  0  0  0  0  0  0
  -30.5331   12.0674  -13.0241 C   0  0  0  0  0  0  0  0  0  0  0  0
  -32.0562   11.9989  -12.9464 C   0  0  0  0  0  0  0  0  0  0  0  0
  -32.4786   11.0321  -11.8250 C   0  0  0  0  0  0  0  0  0  0  0  0
  -33.8112   10.4467  -12.0393 N   0  0  0  0  0  0  0  0  0  0  0  0
  -34.4306   10.9136  -13.2922 C   0  0  0  0  0  0  0  0  0  0  0  0
  -35.8174   10.2792  -13.5273 C   0  0  0  0  0  0  0  0  0  0  0  0
  -35.8215    8.8049  -13.5358 N   0  0  0  0  0  0  0  0  0  0  0  0
  -35.1863    8.2773  -14.7411 C   0  0  0  0  0  0  0  0  0  0  0  0
  -35.1527    8.3228  -12.3098 C   0  0  0  0  0  0  0  0  0  0  0  0
  -33.7757    8.9714  -12.0038 C   0  0  0  0  0  0  0  0  0  0  0  0
 11 12  1  0  0  0
 12  1  1  0  0  0
  1  2  1  0  0  0
  1 10  2  0  0  0
  2  3  2  0  0  0
  3  4  1  0  0  0
  3  8  1  0  0  0
  4 13  1  0  0  0
  4  5  2  0  0  0
 13 15  1  0  0  0
 13 14  1  0  0  0
 15 16  1  0  0  0
 15 20  2  0  0  0
 16 17  2  0  0  0
 17 18  1  0  0  0
 18 21  1  0  0  0
 18 19  2  0  0  0
 21 22  1  0  0  0
 21 25  1  0  0  0
 22 23  2  0  0  0
 22 24  1  0  0  0
 24 27  1  0  0  0
 24 26  1  0  0  0
 27 28  1  0  0  0
 27 32  2  0  0  0
 28 29  2  0  0  0
 29 30  1  0  0  0
 30 31  2  0  0  0
 31 32  1  0  0  0
 19 20  1  0  0  0
  5  6  1  0  0  0
  6  7  2  0  0  0
  7  8  1  0  0  0
  8  9  2  0  0  0
  9 10  1  0  0  0
 10 33  1  0  0  0
 33 34  1  0  0  0
 34 35  1  0  0  0
 35 36  1  0  0  0
 36 37  1  0  0  0
 37 38  1  0  0  0
 37 43  1  0  0  0
 38 39  1  0  0  0
 39 40  1  0  0  0
 40 41  1  0  0  0
 40 42  1  0  0  0
 42 43  1  0  0  0
M  END
> <minimizedAffinity>
-5.92757

$$$$
