CHEMBL3931427


 35 39  0  0  0  0  0  0  0  0999 V2000
  -28.4561   -8.3127   -5.7435 C   0  0  0  0  0  0  0  0  0  0  0  0
  -27.7522   -9.4797   -6.0879 C   0  0  0  0  0  0  0  0  0  0  0  0
  -27.4514   -9.8032   -7.4396 C   0  0  0  0  0  0  0  0  0  0  0  0
  -26.6948  -10.8916   -7.8907 C   0  0  0  0  0  0  0  0  0  0  0  0
  -26.3625  -11.0495   -9.1935 N   0  0  0  0  0  0  0  0  0  0  0  0
  -26.8324  -10.1513  -10.0564 C   0  0  0  0  0  0  0  0  0  0  0  0
  -27.6246   -9.1289   -9.7463 N   0  0  0  0  0  0  0  0  0  0  0  0
  -27.9065   -8.9665   -8.4522 C   0  0  0  0  0  0  0  0  0  0  0  0
  -28.6701   -7.8774   -8.1082 C   0  0  0  0  0  0  0  0  0  0  0  0
  -28.9075   -7.4829   -6.7732 C   0  0  0  0  0  0  0  0  0  0  0  0
  -28.1777   -9.1793   -3.4973 C   0  0  0  0  0  0  0  0  0  0  0  0
  -28.6541   -8.1925   -4.3996 O   0  0  0  0  0  0  0  0  0  0  0  0
  -26.2511  -11.8790   -6.9715 N   0  0  0  0  0  0  0  0  0  0  0  0
  -26.1550  -12.7619   -7.4736 H   0  0  0  0  0  0  0  0  0  0  0  0
  -25.1411  -11.6507   -6.1214 C   0  0  0  0  0  0  0  0  0  0  0  0
  -23.8812  -11.3825   -6.6746 C   0  0  0  0  0  0  0  0  0  0  0  0
  -22.7500  -11.2923   -5.8646 C   0  0  0  0  0  0  0  0  0  0  0  0
  -21.2324  -11.0128   -6.6403 Cl  0  0  0  0  0  0  0  0  0  0  0  0
  -22.8766  -11.4491   -4.4806 C   0  0  0  0  0  0  0  0  0  0  0  0
  -21.5100  -11.4102   -3.4244 Cl  0  0  0  0  0  0  0  0  0  0  0  0
  -24.1356  -11.6633   -3.9135 C   0  0  0  0  0  0  0  0  0  0  0  0
  -25.2550  -11.7593   -4.7347 C   0  0  0  0  0  0  0  0  0  0  0  0
  -26.4554  -12.0062   -4.1858 F   0  0  0  0  0  0  0  0  0  0  0  0
  -29.5653   -6.3049   -6.4987 O   0  0  0  0  0  0  0  0  0  0  0  0
  -28.6770   -5.1850   -6.4164 C   0  0  0  0  0  0  0  0  0  0  0  0
  -28.8624   -4.3500   -5.1716 C   0  0  0  0  0  0  0  0  0  0  0  0
  -30.2816   -3.8904   -4.9251 C   0  0  0  0  0  0  0  0  0  0  0  0
  -30.1510   -2.7093   -4.1155 O   0  0  0  0  0  0  0  0  0  0  0  0
  -28.9550   -2.0295   -4.5470 C   0  0  0  0  0  0  0  0  0  0  0  0
  -29.2892   -0.9846   -5.6087 C   0  0  0  0  0  0  0  0  0  0  0  0
  -28.1711   -1.1772   -6.6150 C   0  0  0  0  0  0  0  0  0  0  0  0
  -27.9168   -2.5874   -6.6208 O   0  0  0  0  0  0  0  0  0  0  0  0
  -28.0893   -3.0437   -5.2674 C   0  0  0  0  0  0  0  0  0  0  0  0
  -29.3165    0.3490   -5.1110 O   0  0  0  0  0  0  0  0  0  0  0  0
  -30.3782    1.1089   -5.6858 C   0  0  0  0  0  0  0  0  0  0  0  0
 11 12  1  0  0  0
 12  1  1  0  0  0
  1  2  1  0  0  0
  1 10  2  0  0  0
  2  3  2  0  0  0
  3  4  1  0  0  0
  3  8  1  0  0  0
  4 13  1  0  0  0
  4  5  2  0  0  0
 13 15  1  0  0  0
 13 14  1  0  0  0
 15 16  1  0  0  0
 15 22  2  0  0  0
 16 17  2  0  0  0
 17 18  1  0  0  0
 17 19  1  0  0  0
 19 20  1  0  0  0
 19 21  2  0  0  0
 21 22  1  0  0  0
 22 23  1  0  0  0
  5  6  1  0  0  0
  6  7  2  0  0  0
  7  8  1  0  0  0
  8  9  2  0  0  0
  9 10  1  0  0  0
 10 24  1  0  0  0
 24 25  1  0  0  0
 25 26  1  0  0  0
 26 27  1  0  0  0
 26 33  1  0  0  0
 27 28  1  0  0  0
 28 29  1  0  0  0
 29 30  1  0  0  0
 29 33  1  0  0  0
 30 34  1  0  0  0
 30 31  1  0  0  0
 34 35  1  0  0  0
 31 32  1  0  0  0
 32 33  1  0  0  0
M  END
> <minimizedAffinity>
-8.06927

$$$$
