CHEMBL3746122


 32 37  0  0  0  0  0  0  0  0999 V2000
  -31.0014   -4.6661   -4.7190 O   0  0  0  0  0  0  0  0  0  0  0  0
  -29.8402   -4.4506   -5.0380 C   0  0  0  0  0  0  0  0  0  0  0  0
  -28.7318   -5.2572   -4.9309 N   0  0  0  0  0  0  0  0  0  0  0  0
  -29.4552   -3.1725   -5.4509 N   0  0  0  0  0  0  0  0  0  0  0  0
  -29.7467   -1.9854   -4.8006 C   0  0  0  0  0  0  0  0  0  0  0  0
  -29.0855   -0.9591   -5.4388 C   0  0  0  0  0  0  0  0  0  0  0  0
  -28.4600   -1.4994   -6.5959 C   0  0  0  0  0  0  0  0  0  0  0  0
  -27.7070   -0.9537   -7.6543 C   0  0  0  0  0  0  0  0  0  0  0  0
  -27.2973   -1.7905   -8.7030 C   0  0  0  0  0  0  0  0  0  0  0  0
  -27.6014   -3.1505   -8.6961 C   0  0  0  0  0  0  0  0  0  0  0  0
  -28.3313   -3.7074   -7.6560 C   0  0  0  0  0  0  0  0  0  0  0  0
  -28.7265   -2.8719   -6.6006 C   0  0  0  0  0  0  0  0  0  0  0  0
  -27.8569   -4.8038   -4.6927 H   0  0  0  0  0  0  0  0  0  0  0  0
  -28.8469   -6.5411   -4.4536 C   0  0  0  0  0  0  0  0  0  0  0  0
  -28.3366   -7.7206   -5.0358 C   0  0  0  0  0  0  0  0  0  0  0  0
  -28.7554   -8.7208   -4.1946 C   0  0  0  0  0  0  0  0  0  0  0  0
  -29.4531   -8.1710   -3.1625 O   0  0  0  0  0  0  0  0  0  0  0  0
  -29.4470   -6.7903   -3.2877 N   0  0  0  0  0  0  0  0  0  0  0  0
  -28.4915  -10.2005   -4.3806 C   0  0  0  0  0  0  0  0  0  0  0  0
  -29.5686  -11.0198   -5.0604 C   0  0  0  0  0  0  0  0  0  0  0  0
  -29.3314  -11.1890   -3.5994 C   0  0  0  0  0  0  0  0  0  0  0  0
  -26.4938   -1.2414   -9.6716 O   0  0  0  0  0  0  0  0  0  0  0  0
  -26.6808   -1.6165  -10.9984 C   0  0  0  0  0  0  0  0  0  0  0  0
  -27.9103   -1.6774  -11.5523 N   0  0  0  0  0  0  0  0  0  0  0  0
  -27.9566   -1.8017  -12.8951 C   0  0  0  0  0  0  0  0  0  0  0  0
  -26.9078   -1.7936  -13.7342 N   0  0  0  0  0  0  0  0  0  0  0  0
  -25.7254   -1.7231  -13.1128 C   0  0  0  0  0  0  0  0  0  0  0  0
  -25.5527   -1.7032  -11.7502 C   0  0  0  0  0  0  0  0  0  0  0  0
  -24.1181   -1.5610  -11.4265 C   0  0  0  0  0  0  0  0  0  0  0  0
  -23.5820   -0.8218  -12.5963 N   0  0  0  0  0  0  0  0  0  0  0  0
  -24.4077   -1.3345  -13.7399 C   0  0  0  0  0  0  0  0  0  0  0  0
  -23.8701    0.1523  -12.4576 H   0  0  0  0  0  0  0  0  0  0  0  0
  1  2  2  0  0  0
  2  3  1  0  0  0
  2  4  1  0  0  0
  3 14  1  0  0  0
  3 13  1  0  0  0
 14 15  1  0  0  0
 14 18  2  0  0  0
 15 16  2  0  0  0
 16 19  1  0  0  0
 16 17  1  0  0  0
 19 20  1  0  0  0
 19 21  1  0  0  0
 20 21  1  0  0  0
 17 18  1  0  0  0
  4  5  1  0  0  0
  4 12  1  0  0  0
  5  6  2  0  0  0
  6  7  1  0  0  0
  7  8  1  0  0  0
  7 12  2  0  0  0
  8  9  2  0  0  0
  9 22  1  0  0  0
  9 10  1  0  0  0
 22 23  1  0  0  0
 23 24  1  0  0  0
 23 28  2  0  0  0
 24 25  2  0  0  0
 25 26  1  0  0  0
 26 27  2  0  0  0
 27 28  1  0  0  0
 27 31  1  0  0  0
 28 29  1  0  0  0
 29 30  1  0  0  0
 30 31  1  0  0  0
 30 32  1  0  0  0
 10 11  2  0  0  0
 11 12  1  0  0  0
M  END
> <minimizedAffinity>
-9.28437

$$$$
