CHEMBL249192


 35 38  0  0  0  0  0  0  0  0999 V2000
  -17.9351    1.5245  -15.5112 N   0  0  0  0  0  0  0  0  0  0  0  0
  -16.9079    1.2331  -14.6300 C   0  0  0  0  0  0  0  0  0  0  0  0
  -16.9451    1.3198  -13.4067 O   0  0  0  0  0  0  0  0  0  0  0  0
  -17.7495    1.3989  -16.5040 H   0  0  0  0  0  0  0  0  0  0  0  0
  -21.4246    1.3231  -14.2147 C   0  0  0  0  0  0  0  0  0  0  0  0
  -21.8327    2.6576  -14.3668 C   0  0  0  0  0  0  0  0  0  0  0  0
  -20.9827    3.6062  -14.9169 C   0  0  0  0  0  0  0  0  0  0  0  0
  -19.7053    3.2354  -15.3101 C   0  0  0  0  0  0  0  0  0  0  0  0
  -19.2483    1.9219  -15.1574 C   0  0  0  0  0  0  0  0  0  0  0  0
  -20.1231    0.9636  -14.6117 C   0  0  0  0  0  0  0  0  0  0  0  0
  -24.1001   -0.9541  -13.0629 C   0  0  0  0  0  0  0  0  0  0  0  0
  -23.1830   -0.8930  -12.0353 C   0  0  0  0  0  0  0  0  0  0  0  0
  -22.1363   -0.0839  -12.3661 O   0  0  0  0  0  0  0  0  0  0  0  0
  -22.3710    0.3796  -13.6301 C   0  0  0  0  0  0  0  0  0  0  0  0
  -23.5498   -0.1637  -14.1019 C   0  0  0  0  0  0  0  0  0  0  0  0
  -25.3918   -1.6030  -13.0851 C   0  0  0  0  0  0  0  0  0  0  0  0
  -26.0895   -1.6378  -14.0920 O   0  0  0  0  0  0  0  0  0  0  0  0
  -25.7873   -2.0321  -11.8554 O   0  0  0  0  0  0  0  0  0  0  0  0
  -27.2248   -1.7873   -9.9687 C   0  0  0  0  0  0  0  0  0  0  0  0
  -27.0995   -1.6009  -11.4710 C   0  0  0  0  0  0  0  0  0  0  0  0
  -15.6424    0.7362  -15.2190 C   0  0  0  0  0  0  0  0  0  0  0  0
  -15.2776    1.2827  -16.4620 C   0  0  0  0  0  0  0  0  0  0  0  0
  -14.0982    0.8921  -17.0744 C   0  0  0  0  0  0  0  0  0  0  0  0
  -13.3243   -0.0410  -16.4183 C   0  0  0  0  0  0  0  0  0  0  0  0
  -13.6758   -0.6247  -15.2475 N   0  0  0  0  0  0  0  0  0  0  0  0
  -14.8450   -0.2694  -14.6575 C   0  0  0  0  0  0  0  0  0  0  0  0
  -15.1966   -0.8957  -13.4353 N   0  0  0  0  0  0  0  0  0  0  0  0
  -15.7195   -0.2357  -12.8597 H   0  0  0  0  0  0  0  0  0  0  0  0
  -16.0309   -2.0844  -13.6485 C   0  0  0  0  0  0  0  0  0  0  0  0
  -15.7909   -3.0906  -12.5477 C   0  0  0  0  0  0  0  0  0  0  0  0
  -15.1889   -2.7217  -11.3399 C   0  0  0  0  0  0  0  0  0  0  0  0
  -15.0643   -3.6755  -10.3399 C   0  0  0  0  0  0  0  0  0  0  0  0
  -15.4881   -4.9511  -10.4604 N   0  0  0  0  0  0  0  0  0  0  0  0
  -16.0589   -5.2904  -11.6356 C   0  0  0  0  0  0  0  0  0  0  0  0
  -16.2289   -4.4106  -12.6925 C   0  0  0  0  0  0  0  0  0  0  0  0
 19 20  1  0  0  0
 20 18  1  0  0  0
 18 16  1  0  0  0
 16 17  2  0  0  0
 16 11  1  0  0  0
 11 12  2  0  0  0
 11 15  1  0  0  0
 12 13  1  0  0  0
 13 14  1  0  0  0
 14  5  1  0  0  0
 14 15  2  0  0  0
  5  6  1  0  0  0
  5 10  2  0  0  0
  6  7  2  0  0  0
  7  8  1  0  0  0
  8  9  2  0  0  0
  9  1  1  0  0  0
  9 10  1  0  0  0
  1  2  1  0  0  0
  1  4  1  0  0  0
  2  3  2  0  0  0
  2 21  1  0  0  0
 21 22  1  0  0  0
 21 26  2  0  0  0
 22 23  2  0  0  0
 23 24  1  0  0  0
 24 25  2  0  0  0
 25 26  1  0  0  0
 26 27  1  0  0  0
 27 29  1  0  0  0
 27 28  1  0  0  0
 29 30  1  0  0  0
 30 31  1  0  0  0
 30 35  2  0  0  0
 31 32  2  0  0  0
 32 33  1  0  0  0
 33 34  2  0  0  0
 34 35  1  0  0  0
M  END
> <minimizedAffinity>
-9.86058

$$$$
