CHEMBL3676344


 38 40  0  0  0  0  0  0  0  0999 V2000
  -29.5948   -5.2978   -7.0913 C   0  0  0  0  0  0  0  0  0  0  0  0
  -28.9723   -4.4559   -8.0121 C   0  0  0  0  0  0  0  0  0  0  0  0
  -28.4643   -3.2104   -7.5982 C   0  0  0  0  0  0  0  0  0  0  0  0
  -28.0041   -2.2159   -8.4720 C   0  0  0  0  0  0  0  0  0  0  0  0
  -27.5432   -1.0360   -8.0160 N   0  0  0  0  0  0  0  0  0  0  0  0
  -27.5814   -0.8334   -6.6969 C   0  0  0  0  0  0  0  0  0  0  0  0
  -28.0549   -1.6859   -5.7878 N   0  0  0  0  0  0  0  0  0  0  0  0
  -28.5036   -2.8595   -6.2377 C   0  0  0  0  0  0  0  0  0  0  0  0
  -29.0625   -3.7522   -5.3320 C   0  0  0  0  0  0  0  0  0  0  0  0
  -29.5953   -4.9823   -5.7277 C   0  0  0  0  0  0  0  0  0  0  0  0
  -29.8974   -7.5715   -7.9086 C   0  0  0  0  0  0  0  0  0  0  0  0
  -30.6530   -8.5393   -8.0091 O   0  0  0  0  0  0  0  0  0  0  0  0
  -30.4054   -6.3306   -7.5986 N   0  0  0  0  0  0  0  0  0  0  0  0
  -31.3086   -6.4527   -7.1571 H   0  0  0  0  0  0  0  0  0  0  0  0
  -27.9166   -8.6038   -8.8993 C   0  0  0  0  0  0  0  0  0  0  0  0
  -28.4215   -7.7057   -8.0437 C   0  0  0  0  0  0  0  0  0  0  0  0
  -28.1156   -2.3912   -9.8805 N   0  0  0  0  0  0  0  0  0  0  0  0
  -28.4014   -3.3394  -10.1108 H   0  0  0  0  0  0  0  0  0  0  0  0
  -27.1554   -1.8824  -10.7896 C   0  0  0  0  0  0  0  0  0  0  0  0
  -25.8711   -1.5281  -10.3423 C   0  0  0  0  0  0  0  0  0  0  0  0
  -24.8585   -1.2077  -11.2439 C   0  0  0  0  0  0  0  0  0  0  0  0
  -25.1323   -1.2048  -12.6105 C   0  0  0  0  0  0  0  0  0  0  0  0
  -23.7193   -0.8993  -13.8291 Br  0  0  0  0  0  0  0  0  0  0  0  0
  -26.4236   -1.4613  -13.0620 C   0  0  0  0  0  0  0  0  0  0  0  0
  -26.7092   -1.4339  -14.3752 F   0  0  0  0  0  0  0  0  0  0  0  0
  -27.4298   -1.7883  -12.1573 C   0  0  0  0  0  0  0  0  0  0  0  0
  -28.6662   -2.0676  -12.6012 F   0  0  0  0  0  0  0  0  0  0  0  0
  -30.1312   -5.7432   -4.7159 O   0  0  0  0  0  0  0  0  0  0  0  0
  -29.1740   -6.3827   -3.8591 C   0  0  0  0  0  0  0  0  0  0  0  0
  -28.7828   -7.7605   -4.4046 C   0  0  0  0  0  0  0  0  0  0  0  0
  -27.3390   -7.9297   -4.4773 N   0  0  0  0  0  0  0  0  0  0  0  0
  -26.7107   -9.0060   -3.8814 C   0  0  0  0  0  0  0  0  0  0  0  0
  -27.3204   -9.9737   -3.4326 O   0  0  0  0  0  0  0  0  0  0  0  0
  -26.7424   -7.1228   -4.6461 H   0  0  0  0  0  0  0  0  0  0  0  0
  -25.1791   -8.9131   -3.8343 C   0  0  0  0  0  0  0  0  0  0  0  0
  -24.5255  -10.1360   -4.3753 N   0  0  0  0  0  0  0  0  0  0  0  0
  -23.6253   -9.8073   -5.4893 C   0  0  0  0  0  0  0  0  0  0  0  0
  -23.7331  -10.7641   -3.3061 C   0  0  0  0  0  0  0  0  0  0  0  0
 15 16  2  0  0  0
 16 11  1  0  0  0
 11 12  2  0  0  0
 11 13  1  0  0  0
 13  1  1  0  0  0
 13 14  1  0  0  0
  1  2  1  0  0  0
  1 10  2  0  0  0
  2  3  2  0  0  0
  3  4  1  0  0  0
  3  8  1  0  0  0
  4 17  1  0  0  0
  4  5  2  0  0  0
 17 19  1  0  0  0
 17 18  1  0  0  0
 19 20  1  0  0  0
 19 26  2  0  0  0
 20 21  2  0  0  0
 21 22  1  0  0  0
 22 23  1  0  0  0
 22 24  2  0  0  0
 24 25  1  0  0  0
 24 26  1  0  0  0
 26 27  1  0  0  0
  5  6  1  0  0  0
  6  7  2  0  0  0
  7  8  1  0  0  0
  8  9  2  0  0  0
  9 10  1  0  0  0
 10 28  1  0  0  0
 28 29  1  0  0  0
 29 30  1  0  0  0
 30 31  1  0  0  0
 31 32  1  0  0  0
 31 34  1  0  0  0
 32 33  2  0  0  0
 32 35  1  0  0  0
 35 36  1  0  0  0
 36 37  1  0  0  0
 36 38  1  0  0  0
M  END
> <minimizedAffinity>
-9.03973

$$$$
