CHEMBL4750035


 35 39  0  0  0  0  0  0  0  0999 V2000
  -15.4991   -0.0979  -14.1909 O   0  0  0  0  0  0  0  0  0  0  0  0
  -14.9633    0.9510  -14.4799 C   0  0  0  0  0  0  0  0  0  0  0  0
  -13.5801    1.4461  -14.0207 C   0  0  0  0  0  0  0  0  0  0  0  0
  -12.6726    0.8513  -13.3098 N   0  0  0  0  0  0  0  0  0  0  0  0
  -13.4194    2.7774  -14.5967 C   0  0  0  0  0  0  0  0  0  0  0  0
  -12.3591    3.6569  -14.4759 C   0  0  0  0  0  0  0  0  0  0  0  0
  -12.4802    4.8753  -15.1353 C   0  0  0  0  0  0  0  0  0  0  0  0
  -11.2034    6.0256  -15.0296 Cl  0  0  0  0  0  0  0  0  0  0  0  0
  -13.6323    5.1860  -15.8834 C   0  0  0  0  0  0  0  0  0  0  0  0
  -14.6869    4.2573  -16.0035 C   0  0  0  0  0  0  0  0  0  0  0  0
  -14.5574    3.0442  -15.3585 C   0  0  0  0  0  0  0  0  0  0  0  0
  -15.4379    1.9463  -15.3304 N   0  0  0  0  0  0  0  0  0  0  0  0
  -13.0585   -0.3931  -12.8364 N   0  0  0  0  0  0  0  0  0  0  0  0
  -12.4071   -1.4076  -13.3114 C   0  0  0  0  0  0  0  0  0  0  0  0
  -12.6051   -2.7124  -12.9402 N   0  0  0  0  0  0  0  0  0  0  0  0
  -11.8908   -3.6787  -13.6237 C   0  0  0  0  0  0  0  0  0  0  0  0
  -11.0567   -3.1541  -14.5445 C   0  0  0  0  0  0  0  0  0  0  0  0
  -11.1379   -1.3972  -14.5651 S   0  0  0  0  0  0  0  0  0  0  0  0
  -13.3713   -2.9460  -12.3296 H   0  0  0  0  0  0  0  0  0  0  0  0
  -12.0575   -5.1090  -13.3044 C   0  0  0  0  0  0  0  0  0  0  0  0
  -13.2233   -5.5521  -12.6609 C   0  0  0  0  0  0  0  0  0  0  0  0
  -13.4227   -6.9027  -12.3679 C   0  0  0  0  0  0  0  0  0  0  0  0
  -12.4397   -7.8365  -12.7005 C   0  0  0  0  0  0  0  0  0  0  0  0
  -11.2664   -7.4191  -13.3410 C   0  0  0  0  0  0  0  0  0  0  0  0
  -11.0776   -6.0660  -13.6365 C   0  0  0  0  0  0  0  0  0  0  0  0
  -12.6503   -9.2554  -12.3897 N   0  0  0  0  0  0  0  0  0  0  0  0
  -11.7279  -10.0417  -12.6290 O   0  0  0  0  0  0  0  0  0  0  0  0
  -13.7474   -9.5821  -11.9079 O   0  0  0  0  0  0  0  0  0  0  0  0
  -16.5457    1.7280  -16.2375 C   0  0  0  0  0  0  0  0  0  0  0  0
  -17.9095    1.9754  -15.6462 C   0  0  0  0  0  0  0  0  0  0  0  0
  -18.6930    0.8986  -15.2032 C   0  0  0  0  0  0  0  0  0  0  0  0
  -19.9720    1.1155  -14.6886 C   0  0  0  0  0  0  0  0  0  0  0  0
  -20.4710    2.4119  -14.5861 C   0  0  0  0  0  0  0  0  0  0  0  0
  -19.6762    3.4939  -14.9594 C   0  0  0  0  0  0  0  0  0  0  0  0
  -18.3981    3.2785  -15.4779 C   0  0  0  0  0  0  0  0  0  0  0  0
  1  2  2  0  0  0
  2  3  1  0  0  0
  2 12  1  0  0  0
  3  4  2  0  0  0
  3  5  1  0  0  0
  4 13  1  0  0  0
 13 14  2  0  0  0
 14 15  1  0  0  0
 14 18  1  0  0  0
 15 16  1  0  0  0
 15 19  1  0  0  0
 16 20  1  0  0  0
 16 17  2  0  0  0
 20 21  1  0  0  0
 20 25  2  0  0  0
 21 22  2  0  0  0
 22 23  1  0  0  0
 23 26  1  0  0  0
 23 24  2  0  0  0
 26 27  2  0  0  0
 26 28  1  0  0  0
 24 25  1  0  0  0
 17 18  1  0  0  0
  5  6  1  0  0  0
  5 11  2  0  0  0
  6  7  2  0  0  0
  7  8  1  0  0  0
  7  9  1  0  0  0
  9 10  2  0  0  0
 10 11  1  0  0  0
 11 12  1  0  0  0
 12 29  1  0  0  0
 29 30  1  0  0  0
 30 31  1  0  0  0
 30 35  2  0  0  0
 31 32  2  0  0  0
 32 33  1  0  0  0
 33 34  2  0  0  0
 34 35  1  0  0  0
M  CHG 1  26   1
M  CHG 1  28  -1
M  END
> <minimizedAffinity>
-8.24467

$$$$
