CHEMBL2088109


 28 30  0  0  0  0  0  0  0  0999 V2000
  -24.0274   -1.0717  -13.2811 C   0  0  0  0  0  0  0  0  0  0  0  0
  -24.8946   -1.3004  -14.3277 C   0  0  0  0  0  0  0  0  0  0  0  0
  -26.1616   -1.6977  -13.9845 C   0  0  0  0  0  0  0  0  0  0  0  0
  -26.5629   -1.8888  -12.7163 N   0  0  0  0  0  0  0  0  0  0  0  0
  -25.6735   -1.6191  -11.7566 C   0  0  0  0  0  0  0  0  0  0  0  0
  -24.4241   -1.2078  -11.9982 N   0  0  0  0  0  0  0  0  0  0  0  0
  -22.7209   -0.6327  -13.5881 N   0  0  0  0  0  0  0  0  0  0  0  0
  -22.0147   -1.1780  -13.1103 H   0  0  0  0  0  0  0  0  0  0  0  0
  -20.0881    3.2668  -15.1217 C   0  0  0  0  0  0  0  0  0  0  0  0
  -21.1009    2.3301  -14.5934 C   0  0  0  0  0  0  0  0  0  0  0  0
  -21.0871    0.9634  -14.4563 C   0  0  0  0  0  0  0  0  0  0  0  0
  -22.3416    0.6227  -13.9026 C   0  0  0  0  0  0  0  0  0  0  0  0
  -23.0743    1.7121  -13.6583 N   0  0  0  0  0  0  0  0  0  0  0  0
  -22.3203    2.7251  -14.1209 N   0  0  0  0  0  0  0  0  0  0  0  0
  -22.6992    3.6653  -14.0739 H   0  0  0  0  0  0  0  0  0  0  0  0
  -26.0436   -1.6861  -10.4275 N   0  0  0  0  0  0  0  0  0  0  0  0
  -25.3710   -2.2493   -9.9247 H   0  0  0  0  0  0  0  0  0  0  0  0
  -27.4462   -1.9322  -10.1367 C   0  0  0  0  0  0  0  0  0  0  0  0
  -27.8153   -2.2900   -8.7351 C   0  0  0  0  0  0  0  0  0  0  0  0
  -28.6127   -3.2359   -8.1399 C   0  0  0  0  0  0  0  0  0  0  0  0
  -28.4752   -3.0050   -6.7432 C   0  0  0  0  0  0  0  0  0  0  0  0
  -27.6416   -1.9764   -6.5140 N   0  0  0  0  0  0  0  0  0  0  0  0
  -27.2335   -1.5324   -7.7604 O   0  0  0  0  0  0  0  0  0  0  0  0
  -29.1192   -3.7547   -5.6580 C   0  0  0  0  0  0  0  0  0  0  0  0
  -28.3546   -4.7236   -5.0668 N   0  0  0  0  0  0  0  0  0  0  0  0
  -30.2673   -3.5469   -5.2912 O   0  0  0  0  0  0  0  0  0  0  0  0
  -27.4078   -4.9024   -5.3776 H   0  0  0  0  0  0  0  0  0  0  0  0
  -28.7581   -5.2703   -4.3261 H   0  0  0  0  0  0  0  0  0  0  0  0
  9 10  1  0  0  0
 10 11  2  0  0  0
 10 14  1  0  0  0
 11 12  1  0  0  0
 12  7  1  0  0  0
 12 13  2  0  0  0
  7  1  1  0  0  0
  7  8  1  0  0  0
  1  2  1  0  0  0
  1  6  2  0  0  0
  2  3  2  0  0  0
  3  4  1  0  0  0
  4  5  2  0  0  0
  5 16  1  0  0  0
  5  6  1  0  0  0
 16 18  1  0  0  0
 16 17  1  0  0  0
 18 19  1  0  0  0
 19 20  2  0  0  0
 19 23  1  0  0  0
 20 21  1  0  0  0
 21 24  1  0  0  0
 21 22  2  0  0  0
 24 25  1  0  0  0
 24 26  2  0  0  0
 25 27  1  0  0  0
 25 28  1  0  0  0
 22 23  1  0  0  0
 13 14  1  0  0  0
 14 15  1  0  0  0
M  END
> <minimizedAffinity>
-8.56168

$$$$
