CHEMBL2403371


 28 31  0  0  0  0  0  0  0  0999 V2000
  -13.1954   -9.6784  -20.5717 C   0  0  0  0  0  0  0  0  0  0  0  0
  -12.8328  -11.0193  -20.3280 C   0  0  0  0  0  0  0  0  0  0  0  0
  -12.6768  -11.5019  -19.0337 C   0  0  0  0  0  0  0  0  0  0  0  0
  -12.8935  -10.6134  -18.0045 C   0  0  0  0  0  0  0  0  0  0  0  0
  -13.2598   -9.2781  -18.2130 C   0  0  0  0  0  0  0  0  0  0  0  0
  -13.4132   -8.7945  -19.5041 C   0  0  0  0  0  0  0  0  0  0  0  0
  -13.3953   -8.6774  -16.8681 C   0  0  0  0  0  0  0  0  0  0  0  0
  -13.8233   -7.4239  -16.6255 C   0  0  0  0  0  0  0  0  0  0  0  0
  -13.0213   -9.7703  -15.8875 C   0  0  0  0  0  0  0  0  0  0  0  0
  -12.9009   -9.7046  -14.6782 O   0  0  0  0  0  0  0  0  0  0  0  0
  -12.7717  -10.8886  -16.6530 N   0  0  0  0  0  0  0  0  0  0  0  0
  -12.4921  -11.7711  -16.2509 H   0  0  0  0  0  0  0  0  0  0  0  0
  -14.0529   -6.8309  -15.3497 C   0  0  0  0  0  0  0  0  0  0  0  0
  -15.3259   -6.7167  -14.8359 N   0  0  0  0  0  0  0  0  0  0  0  0
  -15.2913   -6.0526  -13.6465 C   0  0  0  0  0  0  0  0  0  0  0  0
  -13.9872   -5.7872  -13.3248 C   0  0  0  0  0  0  0  0  0  0  0  0
  -13.1999   -6.3006  -14.3912 C   0  0  0  0  0  0  0  0  0  0  0  0
  -11.5013   -6.1936  -14.4738 Cl  0  0  0  0  0  0  0  0  0  0  0  0
  -13.5727   -5.0686  -12.1025 C   0  0  0  0  0  0  0  0  0  0  0  0
  -14.6998   -4.5854  -11.2845 N   0  0  0  0  0  0  0  0  0  0  0  0
  -14.4869   -3.9389  -10.0693 C   0  0  0  0  0  0  0  0  0  0  0  0
  -13.0708   -3.6655   -9.6162 C   0  0  0  0  0  0  0  0  0  0  0  0
  -15.4201   -3.5955   -9.3380 O   0  0  0  0  0  0  0  0  0  0  0  0
  -16.1013   -4.9767  -11.5524 C   0  0  0  0  0  0  0  0  0  0  0  0
  -16.4810   -5.6377  -12.8869 C   0  0  0  0  0  0  0  0  0  0  0  0
  -16.1796   -6.9584  -15.3291 H   0  0  0  0  0  0  0  0  0  0  0  0
  -12.8502   -8.0901  -22.3115 C   0  0  0  0  0  0  0  0  0  0  0  0
  -13.2975   -9.3744  -21.9025 O   0  0  0  0  0  0  0  0  0  0  0  0
 27 28  1  0  0  0
 28  1  1  0  0  0
  1  2  1  0  0  0
  1  6  2  0  0  0
  2  3  2  0  0  0
  3  4  1  0  0  0
  4  5  2  0  0  0
  4 11  1  0  0  0
  5  6  1  0  0  0
  5  7  1  0  0  0
  7  8  2  0  0  0
  7  9  1  0  0  0
  8 13  1  0  0  0
 13 14  1  0  0  0
 13 17  2  0  0  0
 14 15  1  0  0  0
 14 26  1  0  0  0
 15 16  2  0  0  0
 15 25  1  0  0  0
 16 17  1  0  0  0
 16 19  1  0  0  0
 17 18  1  0  0  0
 19 20  1  0  0  0
 20 21  1  0  0  0
 20 24  1  0  0  0
 21 22  1  0  0  0
 21 23  2  0  0  0
 24 25  1  0  0  0
  9 10  2  0  0  0
  9 11  1  0  0  0
 11 12  1  0  0  0
M  END
> <minimizedAffinity>
-6.88671

$$$$
