CHEMBL2386817


 41 45  0  0  0  0  0  0  0  0999 V2000
  -24.7614   -1.0713  -11.7806 C   0  0  0  0  0  0  0  0  0  0  0  0
  -23.7867   -0.1063  -11.7922 C   0  0  0  0  0  0  0  0  0  0  0  0
  -23.4450    0.1154  -13.1580 C   0  0  0  0  0  0  0  0  0  0  0  0
  -24.1897   -0.6726  -13.9509 N   0  0  0  0  0  0  0  0  0  0  0  0
  -24.9396   -1.3949  -13.0989 N   0  0  0  0  0  0  0  0  0  0  0  0
  -25.5749   -2.0761  -13.4965 H   0  0  0  0  0  0  0  0  0  0  0  0
  -22.4230    1.0372  -13.6662 C   0  0  0  0  0  0  0  0  0  0  0  0
  -21.1973    0.5270  -14.0948 C   0  0  0  0  0  0  0  0  0  0  0  0
  -20.2012    1.3596  -14.5935 C   0  0  0  0  0  0  0  0  0  0  0  0
  -20.3761    2.7421  -14.6834 C   0  0  0  0  0  0  0  0  0  0  0  0
  -21.6066    3.2677  -14.2651 C   0  0  0  0  0  0  0  0  0  0  0  0
  -22.6185    2.4230  -13.7611 C   0  0  0  0  0  0  0  0  0  0  0  0
  -19.3572    3.6023  -15.1645 N   0  0  0  0  0  0  0  0  0  0  0  0
  -18.1239    3.1864  -15.6477 C   0  0  0  0  0  0  0  0  0  0  0  0
  -17.7713    2.0186  -15.7787 O   0  0  0  0  0  0  0  0  0  0  0  0
  -17.2692    4.2341  -15.9428 N   0  0  0  0  0  0  0  0  0  0  0  0
  -19.5764    4.5897  -15.2311 H   0  0  0  0  0  0  0  0  0  0  0  0
  -17.3281    5.0189  -15.3091 H   0  0  0  0  0  0  0  0  0  0  0  0
  -15.9750    3.9307  -16.4443 C   0  0  0  0  0  0  0  0  0  0  0  0
  -15.7083    4.0659  -17.8032 C   0  0  0  0  0  0  0  0  0  0  0  0
  -14.4334    3.7670  -18.2841 C   0  0  0  0  0  0  0  0  0  0  0  0
  -13.4753    3.3120  -17.3906 C   0  0  0  0  0  0  0  0  0  0  0  0
  -13.6920    3.1784  -16.0658 N   0  0  0  0  0  0  0  0  0  0  0  0
  -14.9297    3.5113  -15.6188 C   0  0  0  0  0  0  0  0  0  0  0  0
  -26.8388   -1.5200  -10.5021 C   0  0  0  0  0  0  0  0  0  0  0  0
  -27.5383   -0.9410  -11.3100 O   0  0  0  0  0  0  0  0  0  0  0  0
  -25.4141   -1.6336  -10.6841 N   0  0  0  0  0  0  0  0  0  0  0  0
  -24.8572   -2.1272  -10.0037 H   0  0  0  0  0  0  0  0  0  0  0  0
  -28.6460   -3.2047   -6.9658 C   0  0  0  0  0  0  0  0  0  0  0  0
  -28.4230   -3.9905   -8.1093 C   0  0  0  0  0  0  0  0  0  0  0  0
  -27.8306   -3.4793   -9.2670 C   0  0  0  0  0  0  0  0  0  0  0  0
  -27.4409   -2.1453   -9.2987 C   0  0  0  0  0  0  0  0  0  0  0  0
  -27.6578   -1.3343   -8.1783 C   0  0  0  0  0  0  0  0  0  0  0  0
  -28.2415   -1.8658   -7.0238 C   0  0  0  0  0  0  0  0  0  0  0  0
  -31.9891   -5.2045   -2.9900 C   0  0  0  0  0  0  0  0  0  0  0  0
  -30.7229   -4.8462   -3.6222 N   0  0  0  0  0  0  0  0  0  0  0  0
  -30.5345   -5.5978   -4.8852 C   0  0  0  0  0  0  0  0  0  0  0  0
  -29.2139   -5.2254   -5.6058 C   0  0  0  0  0  0  0  0  0  0  0  0
  -29.1934   -3.7725   -5.8387 N   0  0  0  0  0  0  0  0  0  0  0  0
  -29.3609   -2.9785   -4.6065 C   0  0  0  0  0  0  0  0  0  0  0  0
  -30.6729   -3.3938   -3.9041 C   0  0  0  0  0  0  0  0  0  0  0  0
 35 36  1  0  0  0
 36 37  1  0  0  0
 36 41  1  0  0  0
 37 38  1  0  0  0
 38 39  1  0  0  0
 39 29  1  0  0  0
 39 40  1  0  0  0
 29 30  1  0  0  0
 29 34  2  0  0  0
 30 31  2  0  0  0
 31 32  1  0  0  0
 32 25  1  0  0  0
 32 33  2  0  0  0
 25 26  2  0  0  0
 25 27  1  0  0  0
 27  1  1  0  0  0
 27 28  1  0  0  0
  1  2  2  0  0  0
  1  5  1  0  0  0
  2  3  1  0  0  0
  3  7  1  0  0  0
  3  4  2  0  0  0
  7  8  1  0  0  0
  7 12  2  0  0  0
  8  9  2  0  0  0
  9 10  1  0  0  0
 10 13  1  0  0  0
 10 11  2  0  0  0
 13 14  1  0  0  0
 13 17  1  0  0  0
 14 15  2  0  0  0
 14 16  1  0  0  0
 16 19  1  0  0  0
 16 18  1  0  0  0
 19 20  1  0  0  0
 19 24  2  0  0  0
 20 21  2  0  0  0
 21 22  1  0  0  0
 22 23  2  0  0  0
 23 24  1  0  0  0
 11 12  1  0  0  0
  4  5  1  0  0  0
  5  6  1  0  0  0
 33 34  1  0  0  0
 40 41  1  0  0  0
M  END
> <minimizedAffinity>
-11.50217

$$$$
