CHEMBL3896185


 38 41  0  0  0  0  0  0  0  0999 V2000
  -13.7832   -0.0761  -16.3837 C   0  0  0  0  0  0  0  0  0  0  0  0
  -14.9156    0.3925  -15.5101 C   0  0  0  0  0  0  0  0  0  0  0  0
  -15.8294    1.3004  -16.0882 C   0  0  0  0  0  0  0  0  0  0  0  0
  -17.0092    1.6705  -15.4380 C   0  0  0  0  0  0  0  0  0  0  0  0
  -17.2297    1.2238  -14.1457 C   0  0  0  0  0  0  0  0  0  0  0  0
  -16.2992    0.3776  -13.5336 C   0  0  0  0  0  0  0  0  0  0  0  0
  -15.1344   -0.0550  -14.1909 C   0  0  0  0  0  0  0  0  0  0  0  0
  -14.1888   -0.9055  -13.5480 N   0  0  0  0  0  0  0  0  0  0  0  0
  -14.4545   -2.1822  -13.0623 C   0  0  0  0  0  0  0  0  0  0  0  0
  -15.5242   -2.7687  -13.1543 O   0  0  0  0  0  0  0  0  0  0  0  0
  -13.3795   -2.7229  -12.3628 N   0  0  0  0  0  0  0  0  0  0  0  0
  -13.2700   -0.5293  -13.3764 H   0  0  0  0  0  0  0  0  0  0  0  0
  -12.8240   -2.0458  -11.8616 H   0  0  0  0  0  0  0  0  0  0  0  0
  -13.5042   -4.0001  -11.7462 C   0  0  0  0  0  0  0  0  0  0  0  0
  -13.5012   -4.0754  -10.3549 C   0  0  0  0  0  0  0  0  0  0  0  0
  -13.7203   -5.3032   -9.7360 C   0  0  0  0  0  0  0  0  0  0  0  0
  -13.7906   -5.3596   -8.3994 F   0  0  0  0  0  0  0  0  0  0  0  0
  -13.8868   -6.4701  -10.4739 C   0  0  0  0  0  0  0  0  0  0  0  0
  -13.8348   -6.4258  -11.8729 C   0  0  0  0  0  0  0  0  0  0  0  0
  -13.6589   -5.1771  -12.5001 C   0  0  0  0  0  0  0  0  0  0  0  0
  -13.9569   -7.7026  -12.6781 C   0  0  0  0  0  0  0  0  0  0  0  0
  -12.9686   -7.7631  -13.8317 C   0  0  0  0  0  0  0  0  0  0  0  0
  -13.7723   -8.8177  -11.9120 F   0  0  0  0  0  0  0  0  0  0  0  0
  -15.2093   -7.8446  -13.2104 F   0  0  0  0  0  0  0  0  0  0  0  0
  -17.9821    2.4721  -15.9970 O   0  0  0  0  0  0  0  0  0  0  0  0
  -19.2335    2.4977  -15.4151 C   0  0  0  0  0  0  0  0  0  0  0  0
  -19.8813    3.6741  -15.0500 C   0  0  0  0  0  0  0  0  0  0  0  0
  -21.0740    3.5635  -14.3752 C   0  0  0  0  0  0  0  0  0  0  0  0
  -21.6718    2.3866  -14.1242 N   0  0  0  0  0  0  0  0  0  0  0  0
  -21.0951    1.2538  -14.5625 C   0  0  0  0  0  0  0  0  0  0  0  0
  -19.8679    1.2683  -15.2157 C   0  0  0  0  0  0  0  0  0  0  0  0
  -21.7433    0.0238  -14.3543 N   0  0  0  0  0  0  0  0  0  0  0  0
  -22.8324   -0.1377  -13.5264 C   0  0  0  0  0  0  0  0  0  0  0  0
  -23.3883    0.7217  -12.8488 O   0  0  0  0  0  0  0  0  0  0  0  0
  -21.3738   -0.7829  -14.8279 H   0  0  0  0  0  0  0  0  0  0  0  0
  -23.3967   -1.5159  -13.4074 C   0  0  0  0  0  0  0  0  0  0  0  0
  -24.7709   -1.7002  -12.7984 C   0  0  0  0  0  0  0  0  0  0  0  0
  -23.5670   -2.3238  -12.1507 C   0  0  0  0  0  0  0  0  0  0  0  0
  1  2  1  0  0  0
  2  3  1  0  0  0
  2  7  2  0  0  0
  3  4  2  0  0  0
  4 25  1  0  0  0
  4  5  1  0  0  0
 25 26  1  0  0  0
 26 27  1  0  0  0
 26 31  2  0  0  0
 27 28  2  0  0  0
 28 29  1  0  0  0
 29 30  2  0  0  0
 30 32  1  0  0  0
 30 31  1  0  0  0
 32 33  1  0  0  0
 32 35  1  0  0  0
 33 34  2  0  0  0
 33 36  1  0  0  0
 36 37  1  0  0  0
 36 38  1  0  0  0
 37 38  1  0  0  0
  5  6  2  0  0  0
  6  7  1  0  0  0
  7  8  1  0  0  0
  8  9  1  0  0  0
  8 12  1  0  0  0
  9 10  2  0  0  0
  9 11  1  0  0  0
 11 14  1  0  0  0
 11 13  1  0  0  0
 14 15  1  0  0  0
 14 20  2  0  0  0
 15 16  2  0  0  0
 16 17  1  0  0  0
 16 18  1  0  0  0
 18 19  2  0  0  0
 19 21  1  0  0  0
 19 20  1  0  0  0
 21 22  1  0  0  0
 21 23  1  0  0  0
 21 24  1  0  0  0
M  END
> <minimizedAffinity>
-9.83306

$$$$
