CHEMBL3960179


 31 34  0  0  0  0  0  0  0  0999 V2000
  -25.5561   -1.9088  -12.3321 C   0  0  0  0  0  0  0  0  0  0  0  0
  -24.3234   -1.8678  -11.6671 C   0  0  0  0  0  0  0  0  0  0  0  0
  -23.1898   -1.2662  -12.2557 C   0  0  0  0  0  0  0  0  0  0  0  0
  -23.2586   -0.6905  -13.5282 C   0  0  0  0  0  0  0  0  0  0  0  0
  -24.4735   -0.7902  -14.2208 C   0  0  0  0  0  0  0  0  0  0  0  0
  -25.6086   -1.4133  -13.6394 C   0  0  0  0  0  0  0  0  0  0  0  0
  -28.0168   -2.5279   -9.6662 N   0  0  0  0  0  0  0  0  0  0  0  0
  -26.8295   -2.1047  -10.2698 C   0  0  0  0  0  0  0  0  0  0  0  0
  -25.9349   -1.4900   -9.6927 O   0  0  0  0  0  0  0  0  0  0  0  0
  -26.7472   -2.3549  -11.6496 N   0  0  0  0  0  0  0  0  0  0  0  0
  -28.7407   -2.9100  -10.2575 H   0  0  0  0  0  0  0  0  0  0  0  0
  -27.6139   -2.2029  -12.1447 H   0  0  0  0  0  0  0  0  0  0  0  0
  -27.9951    0.3700   -5.5439 C   0  0  0  0  0  0  0  0  0  0  0  0
  -28.3145   -0.9234   -6.2475 C   0  0  0  0  0  0  0  0  0  0  0  0
  -28.8955   -1.9509   -5.5000 C   0  0  0  0  0  0  0  0  0  0  0  0
  -29.2124   -3.1513   -6.1142 C   0  0  0  0  0  0  0  0  0  0  0  0
  -28.9519   -3.3434   -7.4716 C   0  0  0  0  0  0  0  0  0  0  0  0
  -29.4166   -4.4912   -7.9756 F   0  0  0  0  0  0  0  0  0  0  0  0
  -28.3378   -2.3588   -8.2685 C   0  0  0  0  0  0  0  0  0  0  0  0
  -28.0414   -1.1298   -7.6283 C   0  0  0  0  0  0  0  0  0  0  0  0
  -22.1225    0.0276  -14.0763 C   0  0  0  0  0  0  0  0  0  0  0  0
  -21.1805    0.6755  -14.4792 C   0  0  0  0  0  0  0  0  0  0  0  0
  -20.0503    1.5127  -14.8782 C   0  0  0  0  0  0  0  0  0  0  0  0
  -20.1882    2.9884  -15.0195 C   0  0  0  0  0  0  0  0  0  0  0  0
  -19.1026    3.6823  -15.3874 C   0  0  0  0  0  0  0  0  0  0  0  0
  -17.8924    2.9939  -15.6257 C   0  0  0  0  0  0  0  0  0  0  0  0
  -16.7038    3.4273  -15.9846 N   0  0  0  0  0  0  0  0  0  0  0  0
  -15.9147    2.3110  -16.0548 C   0  0  0  0  0  0  0  0  0  0  0  0
  -16.6375    1.1805  -15.7402 C   0  0  0  0  0  0  0  0  0  0  0  0
  -17.9083    1.6146  -15.4577 N   0  0  0  0  0  0  0  0  0  0  0  0
  -18.9701    0.8246  -15.0852 N   0  0  0  0  0  0  0  0  0  0  0  0
 13 14  1  0  0  0
 14 15  1  0  0  0
 14 20  2  0  0  0
 15 16  2  0  0  0
 16 17  1  0  0  0
 17 18  1  0  0  0
 17 19  2  0  0  0
 19  7  1  0  0  0
 19 20  1  0  0  0
  7  8  1  0  0  0
  7 11  1  0  0  0
  8  9  2  0  0  0
  8 10  1  0  0  0
 10  1  1  0  0  0
 10 12  1  0  0  0
  1  2  1  0  0  0
  1  6  2  0  0  0
  2  3  2  0  0  0
  3  4  1  0  0  0
  4 21  1  0  0  0
  4  5  2  0  0  0
 21 22  3  0  0  0
 22 23  1  0  0  0
 23 24  1  0  0  0
 23 31  2  0  0  0
 24 25  2  0  0  0
 25 26  1  0  0  0
 26 27  2  0  0  0
 26 30  1  0  0  0
 27 28  1  0  0  0
 28 29  2  0  0  0
 29 30  1  0  0  0
 30 31  1  0  0  0
  5  6  1  0  0  0
M  END
> <minimizedAffinity>
-12.37724

$$$$
