CHEMBL240431


 40 45  0  0  0  0  0  0  0  0999 V2000
  -28.3923   -2.2069   -7.5990 C   0  0  0  0  0  0  0  0  0  0  0  0
  -27.8179   -1.4251   -8.6000 C   0  0  0  0  0  0  0  0  0  0  0  0
  -27.6568   -0.1432   -8.1686 O   0  0  0  0  0  0  0  0  0  0  0  0
  -28.1500   -0.0710   -6.9033 C   0  0  0  0  0  0  0  0  0  0  0  0
  -28.1841    1.0857   -6.2275 N   0  0  0  0  0  0  0  0  0  0  0  0
  -28.7087    0.9615   -4.9914 C   0  0  0  0  0  0  0  0  0  0  0  0
  -29.1532   -0.2239   -4.4244 C   0  0  0  0  0  0  0  0  0  0  0  0
  -29.0706   -1.4257   -5.1412 C   0  0  0  0  0  0  0  0  0  0  0  0
  -28.5789   -1.3288   -6.4711 C   0  0  0  0  0  0  0  0  0  0  0  0
  -29.4637   -6.3385   -8.0106 C   0  0  0  0  0  0  0  0  0  0  0  0
  -30.4383   -5.3969   -7.6950 C   0  0  0  0  0  0  0  0  0  0  0  0
  -30.1067   -4.0406   -7.6278 C   0  0  0  0  0  0  0  0  0  0  0  0
  -28.7788   -3.6131   -7.7829 C   0  0  0  0  0  0  0  0  0  0  0  0
  -27.8039   -4.5841   -8.0568 C   0  0  0  0  0  0  0  0  0  0  0  0
  -28.1494   -5.9294   -8.2145 C   0  0  0  0  0  0  0  0  0  0  0  0
  -27.4123   -1.6681   -9.9817 C   0  0  0  0  0  0  0  0  0  0  0  0
  -26.0474   -1.7424  -10.2868 C   0  0  0  0  0  0  0  0  0  0  0  0
  -25.6075   -1.7192  -11.6072 C   0  0  0  0  0  0  0  0  0  0  0  0
  -26.5206   -1.7024  -12.6614 C   0  0  0  0  0  0  0  0  0  0  0  0
  -27.8869   -1.7173  -12.3701 C   0  0  0  0  0  0  0  0  0  0  0  0
  -28.3317   -1.7044  -11.0383 C   0  0  0  0  0  0  0  0  0  0  0  0
  -26.1746   -1.6451  -13.9915 O   0  0  0  0  0  0  0  0  0  0  0  0
  -24.7830   -1.8881  -14.2416 C   0  0  0  0  0  0  0  0  0  0  0  0
  -24.0510   -0.6100  -14.6701 C   0  0  0  0  0  0  0  0  0  0  0  0
  -23.0358   -0.1883  -13.6817 N   0  0  0  0  0  0  0  0  0  0  0  0
  -23.4209    0.9728  -12.8656 C   0  0  0  0  0  0  0  0  0  0  0  0
  -22.9782    2.1844  -13.6575 C   0  0  0  0  0  0  0  0  0  0  0  0
  -21.6953    1.7211  -14.3185 C   0  0  0  0  0  0  0  0  0  0  0  0
  -21.7775    0.1973  -14.3392 C   0  0  0  0  0  0  0  0  0  0  0  0
  -29.3659   -2.6442   -4.5173 N   0  0  0  0  0  0  0  0  0  0  0  0
  -30.3670   -2.8140   -4.4627 H   0  0  0  0  0  0  0  0  0  0  0  0
  -28.6623   -3.0111   -3.2819 C   0  0  0  0  0  0  0  0  0  0  0  0
  -28.4100   -4.5367   -3.2963 C   0  0  0  0  0  0  0  0  0  0  0  0
  -28.9316   -5.2664   -4.4698 N   0  0  0  0  0  0  0  0  0  0  0  0
  -30.3425   -5.6581   -4.2339 C   0  0  0  0  0  0  0  0  0  0  0  0
  -30.5293   -6.8288   -3.2369 C   0  0  0  0  0  0  0  0  0  0  0  0
  -29.7161   -8.0163   -3.5572 N   0  0  0  0  0  0  0  0  0  0  0  0
  -28.3133   -7.6243   -3.7697 C   0  0  0  0  0  0  0  0  0  0  0  0
  -28.1601   -6.4815   -4.7971 C   0  0  0  0  0  0  0  0  0  0  0  0
  -30.0681   -8.4015   -4.4354 H   0  0  0  0  0  0  0  0  0  0  0  0
 10 11  1  0  0  0
 10 15  2  0  0  0
 11 12  2  0  0  0
 12 13  1  0  0  0
 13  1  1  0  0  0
 13 14  2  0  0  0
  1  2  2  0  0  0
  1  9  1  0  0  0
  2 16  1  0  0  0
  2  3  1  0  0  0
 16 17  1  0  0  0
 16 21  2  0  0  0
 17 18  2  0  0  0
 18 19  1  0  0  0
 19 22  1  0  0  0
 19 20  2  0  0  0
 22 23  1  0  0  0
 23 24  1  0  0  0
 24 25  1  0  0  0
 25 26  1  0  0  0
 25 29  1  0  0  0
 26 27  1  0  0  0
 27 28  1  0  0  0
 28 29  1  0  0  0
 20 21  1  0  0  0
  3  4  1  0  0  0
  4  5  1  0  0  0
  4  9  2  0  0  0
  5  6  2  0  0  0
  6  7  1  0  0  0
  7  8  2  0  0  0
  8 30  1  0  0  0
  8  9  1  0  0  0
 30 32  1  0  0  0
 30 31  1  0  0  0
 32 33  1  0  0  0
 33 34  1  0  0  0
 34 35  1  0  0  0
 34 39  1  0  0  0
 35 36  1  0  0  0
 36 37  1  0  0  0
 37 38  1  0  0  0
 37 40  1  0  0  0
 38 39  1  0  0  0
 14 15  1  0  0  0
M  END
> <minimizedAffinity>
-7.91542

$$$$
