CHEMBL457985


 32 36  0  0  0  0  0  0  0  0999 V2000
  -15.8515    2.2466  -16.1937 C   0  0  0  0  0  0  0  0  0  0  0  0
  -16.0522    3.6096  -15.9450 C   0  0  0  0  0  0  0  0  0  0  0  0
  -17.2697    4.0945  -15.5085 C   0  0  0  0  0  0  0  0  0  0  0  0
  -18.3023    3.2021  -15.2629 C   0  0  0  0  0  0  0  0  0  0  0  0
  -19.4839    3.7422  -14.7886 N   0  0  0  0  0  0  0  0  0  0  0  0
  -20.5476    3.0027  -14.4247 C   0  0  0  0  0  0  0  0  0  0  0  0
  -21.5521    3.5909  -14.0092 O   0  0  0  0  0  0  0  0  0  0  0  0
  -20.4827    1.5088  -14.5945 C   0  0  0  0  0  0  0  0  0  0  0  0
  -19.3622    0.9342  -15.1265 C   0  0  0  0  0  0  0  0  0  0  0  0
  -19.2417   -0.4190  -15.4293 N   0  0  0  0  0  0  0  0  0  0  0  0
  -18.1793    1.8177  -15.4554 C   0  0  0  0  0  0  0  0  0  0  0  0
  -16.9331    1.3665  -15.9512 C   0  0  0  0  0  0  0  0  0  0  0  0
  -19.5856    4.7408  -14.6783 H   0  0  0  0  0  0  0  0  0  0  0  0
  -19.9666   -0.9820  -14.9712 H   0  0  0  0  0  0  0  0  0  0  0  0
  -18.3191   -0.8086  -15.2705 H   0  0  0  0  0  0  0  0  0  0  0  0
  -21.6705    0.7610  -14.2613 C   0  0  0  0  0  0  0  0  0  0  0  0
  -22.4632   -0.0909  -14.9017 N   0  0  0  0  0  0  0  0  0  0  0  0
  -23.4789   -0.4140  -14.0011 C   0  0  0  0  0  0  0  0  0  0  0  0
  -24.5814   -1.2805  -14.0979 C   0  0  0  0  0  0  0  0  0  0  0  0
  -25.5146   -1.3113  -13.0404 C   0  0  0  0  0  0  0  0  0  0  0  0
  -25.3479   -0.5206  -11.9016 C   0  0  0  0  0  0  0  0  0  0  0  0
  -24.2197    0.2819  -11.7517 C   0  0  0  0  0  0  0  0  0  0  0  0
  -23.3247    0.2937  -12.8200 C   0  0  0  0  0  0  0  0  0  0  0  0
  -22.1377    0.9335  -12.9757 N   0  0  0  0  0  0  0  0  0  0  0  0
  -21.6413    1.4252  -12.2445 H   0  0  0  0  0  0  0  0  0  0  0  0
  -10.7163    0.1058  -16.6847 C   0  0  0  0  0  0  0  0  0  0  0  0
  -11.9036    0.8637  -17.0815 N   0  0  0  0  0  0  0  0  0  0  0  0
  -13.0869   -0.0217  -17.1752 C   0  0  0  0  0  0  0  0  0  0  0  0
  -14.3850    0.7415  -17.5547 C   0  0  0  0  0  0  0  0  0  0  0  0
  -14.5970    1.8359  -16.6034 N   0  0  0  0  0  0  0  0  0  0  0  0
  -13.4424    2.7477  -16.4720 C   0  0  0  0  0  0  0  0  0  0  0  0
  -12.1788    1.9407  -16.1067 C   0  0  0  0  0  0  0  0  0  0  0  0
 26 27  1  0  0  0
 27 28  1  0  0  0
 27 32  1  0  0  0
 28 29  1  0  0  0
 29 30  1  0  0  0
 30  1  1  0  0  0
 30 31  1  0  0  0
  1  2  1  0  0  0
  1 12  2  0  0  0
  2  3  2  0  0  0
  3  4  1  0  0  0
  4  5  1  0  0  0
  4 11  2  0  0  0
  5  6  1  0  0  0
  5 13  1  0  0  0
  6  7  2  0  0  0
  6  8  1  0  0  0
  8 16  1  0  0  0
  8  9  2  0  0  0
 16 17  2  0  0  0
 16 24  1  0  0  0
 17 18  1  0  0  0
 18 19  1  0  0  0
 18 23  2  0  0  0
 19 20  2  0  0  0
 20 21  1  0  0  0
 21 22  2  0  0  0
 22 23  1  0  0  0
 23 24  1  0  0  0
 24 25  1  0  0  0
  9 10  1  0  0  0
  9 11  1  0  0  0
 10 14  1  0  0  0
 10 15  1  0  0  0
 11 12  1  0  0  0
 31 32  1  0  0  0
M  END
> <minimizedAffinity>
-9.58337

$$$$
