CHEMBL1242030


 27 29  0  0  0  0  0  0  0  0999 V2000
  -29.0000   -2.8866   -6.0838 N   0  0  0  0  0  0  0  0  0  0  0  0
  -28.8653   -3.8985   -6.9671 N   0  0  0  0  0  0  0  0  0  0  0  0
  -29.5905   -4.9080   -6.4410 C   0  0  0  0  0  0  0  0  0  0  0  0
  -30.1620   -4.5313   -5.1868 C   0  0  0  0  0  0  0  0  0  0  0  0
  -30.9538   -5.0908   -4.1704 C   0  0  0  0  0  0  0  0  0  0  0  0
  -31.4363   -6.3924   -4.1503 N   0  0  0  0  0  0  0  0  0  0  0  0
  -31.2755   -4.3323   -3.1030 N   0  0  0  0  0  0  0  0  0  0  0  0
  -30.8149   -3.0704   -3.0450 C   0  0  0  0  0  0  0  0  0  0  0  0
  -30.0527   -2.4309   -3.9390 N   0  0  0  0  0  0  0  0  0  0  0  0
  -29.7598   -3.2169   -4.9923 C   0  0  0  0  0  0  0  0  0  0  0  0
  -30.8082   -7.0830   -4.5405 H   0  0  0  0  0  0  0  0  0  0  0  0
  -31.8024   -6.6183   -3.2328 H   0  0  0  0  0  0  0  0  0  0  0  0
  -29.6744   -6.1915   -7.1433 C   0  0  0  0  0  0  0  0  0  0  0  0
  -28.5426   -6.7186   -7.7863 C   0  0  0  0  0  0  0  0  0  0  0  0
  -28.6007   -7.9521   -8.4448 C   0  0  0  0  0  0  0  0  0  0  0  0
  -29.7952   -8.6659   -8.4730 C   0  0  0  0  0  0  0  0  0  0  0  0
  -30.9222   -8.1721   -7.8205 C   0  0  0  0  0  0  0  0  0  0  0  0
  -30.8692   -6.9234   -7.1939 C   0  0  0  0  0  0  0  0  0  0  0  0
  -29.8791   -9.8749   -9.2168 N   0  0  0  0  0  0  0  0  0  0  0  0
  -30.5654   -9.8682   -9.9721 H   0  0  0  0  0  0  0  0  0  0  0  0
  -29.9771  -11.3400   -8.3897 S   0  0  0  0  0  0  0  0  0  0  0  0
  -28.7898  -12.3143   -9.2825 C   0  0  0  0  0  0  0  0  0  0  0  0
  -29.5329  -11.1800   -7.0197 O   0  0  0  0  0  0  0  0  0  0  0  0
  -31.2922  -11.8649   -8.6967 O   0  0  0  0  0  0  0  0  0  0  0  0
  -27.2555   -1.3130   -5.3093 C   0  0  0  0  0  0  0  0  0  0  0  0
  -28.3519   -1.6030   -6.3341 C   0  0  0  0  0  0  0  0  0  0  0  0
  -27.7986   -1.5174   -7.7600 C   0  0  0  0  0  0  0  0  0  0  0  0
 25 26  1  0  0  0
 26 27  1  0  0  0
 26  1  1  0  0  0
  1  2  1  0  0  0
  1 10  1  0  0  0
  2  3  2  0  0  0
  3 13  1  0  0  0
  3  4  1  0  0  0
 13 14  1  0  0  0
 13 18  2  0  0  0
 14 15  2  0  0  0
 15 16  1  0  0  0
 16 19  1  0  0  0
 16 17  2  0  0  0
 19 21  1  0  0  0
 19 20  1  0  0  0
 21 22  1  0  0  0
 21 23  2  0  0  0
 21 24  2  0  0  0
 17 18  1  0  0  0
  4  5  1  0  0  0
  4 10  2  0  0  0
  5  6  1  0  0  0
  5  7  2  0  0  0
  6 11  1  0  0  0
  6 12  1  0  0  0
  7  8  1  0  0  0
  8  9  2  0  0  0
  9 10  1  0  0  0
M  END
> <minimizedAffinity>
-7.63989

$$$$
