CHEMBL1271642


 29 31  0  0  0  0  0  0  0  0999 V2000
  -21.5494    0.6839  -14.3607 C   0  0  0  0  0  0  0  0  0  0  0  0
  -21.9484    1.9066  -14.0927 N   0  0  0  0  0  0  0  0  0  0  0  0
  -20.8761    2.6912  -14.4104 C   0  0  0  0  0  0  0  0  0  0  0  0
  -19.8218    1.9062  -14.8153 C   0  0  0  0  0  0  0  0  0  0  0  0
  -20.2424    0.5990  -14.7581 O   0  0  0  0  0  0  0  0  0  0  0  0
  -18.4650    2.1718  -15.2601 C   0  0  0  0  0  0  0  0  0  0  0  0
  -17.5485    1.1294  -15.4797 C   0  0  0  0  0  0  0  0  0  0  0  0
  -16.2314    1.3973  -15.8693 C   0  0  0  0  0  0  0  0  0  0  0  0
  -15.8338    2.7156  -16.0479 C   0  0  0  0  0  0  0  0  0  0  0  0
  -14.5565    3.0440  -16.4059 O   0  0  0  0  0  0  0  0  0  0  0  0
  -16.7393    3.7531  -15.8585 C   0  0  0  0  0  0  0  0  0  0  0  0
  -16.3478    5.0474  -16.0462 O   0  0  0  0  0  0  0  0  0  0  0  0
  -18.0453    3.4949  -15.4680 C   0  0  0  0  0  0  0  0  0  0  0  0
  -14.0318    2.2254  -16.4342 H   0  0  0  0  0  0  0  0  0  0  0  0
  -15.4082    4.9849  -16.3092 H   0  0  0  0  0  0  0  0  0  0  0  0
  -22.2518   -0.4647  -14.3644 N   0  0  0  0  0  0  0  0  0  0  0  0
  -22.3100   -0.9600  -15.2429 H   0  0  0  0  0  0  0  0  0  0  0  0
  -25.4635   -1.3318  -11.7568 C   0  0  0  0  0  0  0  0  0  0  0  0
  -24.1858   -1.1923  -11.2337 C   0  0  0  0  0  0  0  0  0  0  0  0
  -23.1312   -0.9029  -12.0969 C   0  0  0  0  0  0  0  0  0  0  0  0
  -23.3204   -0.7340  -13.4792 C   0  0  0  0  0  0  0  0  0  0  0  0
  -24.6144   -0.9171  -13.9885 C   0  0  0  0  0  0  0  0  0  0  0  0
  -25.6868   -1.2047  -13.1322 C   0  0  0  0  0  0  0  0  0  0  0  0
  -26.8280   -3.2543  -10.5054 N   0  0  0  0  0  0  0  0  0  0  0  0
  -26.8111   -1.5802  -10.6486 S   0  0  0  0  0  0  0  0  0  0  0  0
  -28.0465   -1.1985  -11.3013 O   0  0  0  0  0  0  0  0  0  0  0  0
  -26.4445   -1.0976   -9.3414 O   0  0  0  0  0  0  0  0  0  0  0  0
  -27.7933   -3.5866  -10.5030 H   0  0  0  0  0  0  0  0  0  0  0  0
  -26.2860   -3.5533   -9.6970 H   0  0  0  0  0  0  0  0  0  0  0  0
 24 25  1  0  0  0
 24 28  1  0  0  0
 24 29  1  0  0  0
 25 26  2  0  0  0
 25 27  2  0  0  0
 25 18  1  0  0  0
 18 19  1  0  0  0
 18 23  2  0  0  0
 19 20  2  0  0  0
 20 21  1  0  0  0
 21 16  1  0  0  0
 21 22  2  0  0  0
 16  1  1  0  0  0
 16 17  1  0  0  0
  1  2  2  0  0  0
  1  5  1  0  0  0
  2  3  1  0  0  0
  3  4  2  0  0  0
  4  6  1  0  0  0
  4  5  1  0  0  0
  6  7  1  0  0  0
  6 13  2  0  0  0
  7  8  2  0  0  0
  8  9  1  0  0  0
  9 10  1  0  0  0
  9 11  2  0  0  0
 10 14  1  0  0  0
 11 12  1  0  0  0
 11 13  1  0  0  0
 12 15  1  0  0  0
 22 23  1  0  0  0
M  END
> <minimizedAffinity>
-9.09518

$$$$
