CHEMBL1762530


 38 42  0  0  0  0  0  0  0  0999 V2000
  -28.8654   -7.4948   -3.5090 N   0  0  0  0  0  0  0  0  0  0  0  0
  -28.3170   -7.3513   -2.6750 H   0  0  0  0  0  0  0  0  0  0  0  0
  -30.0816   -4.4251   -4.9209 C   0  0  0  0  0  0  0  0  0  0  0  0
  -31.3221   -4.3236   -4.2996 C   0  0  0  0  0  0  0  0  0  0  0  0
  -31.6591   -5.2942   -3.3966 C   0  0  0  0  0  0  0  0  0  0  0  0
  -30.8723   -6.3337   -3.1346 N   0  0  0  0  0  0  0  0  0  0  0  0
  -29.6980   -6.4078   -3.7797 C   0  0  0  0  0  0  0  0  0  0  0  0
  -29.2684   -5.4722   -4.6486 N   0  0  0  0  0  0  0  0  0  0  0  0
  -29.6810   -3.4023   -5.8404 N   0  0  0  0  0  0  0  0  0  0  0  0
  -30.0782   -3.7194   -7.2226 C   0  0  0  0  0  0  0  0  0  0  0  0
  -26.9099   -2.7154   -4.8656 C   0  0  0  0  0  0  0  0  0  0  0  0
  -28.0079   -1.7118   -5.1035 C   0  0  0  0  0  0  0  0  0  0  0  0
  -27.6721   -0.3550   -4.8891 C   0  0  0  0  0  0  0  0  0  0  0  0
  -28.5763    0.6713   -5.1483 C   0  0  0  0  0  0  0  0  0  0  0  0
  -29.8546    0.3646   -5.5986 C   0  0  0  0  0  0  0  0  0  0  0  0
  -30.2086   -0.9892   -5.7591 C   0  0  0  0  0  0  0  0  0  0  0  0
  -29.3083   -2.0629   -5.5436 C   0  0  0  0  0  0  0  0  0  0  0  0
  -30.8472    1.4529   -5.9086 C   0  0  0  0  0  0  0  0  0  0  0  0
  -30.4888    2.1243   -7.1109 O   0  0  0  0  0  0  0  0  0  0  0  0
  -29.5369    2.3167   -7.0514 H   0  0  0  0  0  0  0  0  0  0  0  0
  -28.4587   -8.5189   -4.3844 C   0  0  0  0  0  0  0  0  0  0  0  0
  -27.1859   -9.1037   -4.2983 C   0  0  0  0  0  0  0  0  0  0  0  0
  -26.7275  -10.0658   -5.2040 C   0  0  0  0  0  0  0  0  0  0  0  0
  -27.6045  -10.4146   -6.2403 C   0  0  0  0  0  0  0  0  0  0  0  0
  -28.8990   -9.8739   -6.3804 C   0  0  0  0  0  0  0  0  0  0  0  0
  -29.3012   -8.9249   -5.4271 C   0  0  0  0  0  0  0  0  0  0  0  0
  -25.4722  -10.6246   -5.0887 N   0  0  0  0  0  0  0  0  0  0  0  0
  -25.0022  -11.2735   -3.8572 C   0  0  0  0  0  0  0  0  0  0  0  0
  -23.6555  -10.6706   -3.4353 C   0  0  0  0  0  0  0  0  0  0  0  0
  -22.6868  -10.7593   -4.4959 O   0  0  0  0  0  0  0  0  0  0  0  0
  -23.1556  -10.0472   -5.6553 C   0  0  0  0  0  0  0  0  0  0  0  0
  -24.4904  -10.6105   -6.1801 C   0  0  0  0  0  0  0  0  0  0  0  0
  -29.7083  -10.2610   -7.4326 N   0  0  0  0  0  0  0  0  0  0  0  0
  -30.4521   -9.3157   -8.2758 C   0  0  0  0  0  0  0  0  0  0  0  0
  -31.9609   -9.5546   -8.1319 C   0  0  0  0  0  0  0  0  0  0  0  0
  -32.3050  -10.9204   -8.4257 O   0  0  0  0  0  0  0  0  0  0  0  0
  -31.6241  -11.8082   -7.5226 C   0  0  0  0  0  0  0  0  0  0  0  0
  -30.0946  -11.6693   -7.6195 C   0  0  0  0  0  0  0  0  0  0  0  0
 11 12  1  0  0  0
 12 13  1  0  0  0
 12 17  2  0  0  0
 13 14  2  0  0  0
 14 15  1  0  0  0
 15 18  1  0  0  0
 15 16  2  0  0  0
 18 19  1  0  0  0
 19 20  1  0  0  0
 16 17  1  0  0  0
 17  9  1  0  0  0
  9 10  1  0  0  0
  9  3  1  0  0  0
  3  4  1  0  0  0
  3  8  2  0  0  0
  4  5  2  0  0  0
  5  6  1  0  0  0
  6  7  2  0  0  0
  7  1  1  0  0  0
  7  8  1  0  0  0
  1 21  1  0  0  0
  1  2  1  0  0  0
 21 22  1  0  0  0
 21 26  2  0  0  0
 22 23  2  0  0  0
 23 27  1  0  0  0
 23 24  1  0  0  0
 27 28  1  0  0  0
 27 32  1  0  0  0
 28 29  1  0  0  0
 29 30  1  0  0  0
 30 31  1  0  0  0
 31 32  1  0  0  0
 24 25  2  0  0  0
 25 33  1  0  0  0
 25 26  1  0  0  0
 33 34  1  0  0  0
 33 38  1  0  0  0
 34 35  1  0  0  0
 35 36  1  0  0  0
 36 37  1  0  0  0
 37 38  1  0  0  0
M  END
> <minimizedAffinity>
-9.11698

$$$$
