CHEMBL3656053


 38 42  0  0  0  0  0  0  0  0999 V2000
  -18.6256    1.8809  -15.3053 C   0  0  0  0  0  0  0  0  0  0  0  0
  -18.8069    3.2368  -15.0468 C   0  0  0  0  0  0  0  0  0  0  0  0
  -19.9480    3.6247  -14.3665 C   0  0  0  0  0  0  0  0  0  0  0  0
  -20.9254    2.7735  -13.9885 N   0  0  0  0  0  0  0  0  0  0  0  0
  -20.7575    1.4683  -14.3146 C   0  0  0  0  0  0  0  0  0  0  0  0
  -19.6302    0.9827  -14.9626 C   0  0  0  0  0  0  0  0  0  0  0  0
  -21.8788    0.6099  -13.9537 C   0  0  0  0  0  0  0  0  0  0  0  0
  -23.0458    0.2862  -14.6202 C   0  0  0  0  0  0  0  0  0  0  0  0
  -23.8258   -0.5890  -13.8050 C   0  0  0  0  0  0  0  0  0  0  0  0
  -23.1172   -0.7269  -12.6237 C   0  0  0  0  0  0  0  0  0  0  0  0
  -21.9330   -0.0462  -12.7453 N   0  0  0  0  0  0  0  0  0  0  0  0
  -21.1959    0.0130  -12.0527 H   0  0  0  0  0  0  0  0  0  0  0  0
  -25.1202   -1.1476  -14.1911 C   0  0  0  0  0  0  0  0  0  0  0  0
  -25.2881   -1.5989  -15.3248 O   0  0  0  0  0  0  0  0  0  0  0  0
  -26.1230   -1.2404  -13.2358 N   0  0  0  0  0  0  0  0  0  0  0  0
  -27.3309   -1.9914  -13.5354 C   0  0  0  0  0  0  0  0  0  0  0  0
  -28.0829   -2.1096  -12.2175 C   0  0  0  0  0  0  0  0  0  0  0  0
  -27.0112   -1.8920  -11.1553 C   0  0  0  0  0  0  0  0  0  0  0  0
  -27.5625   -1.3824   -9.9527 O   0  0  0  0  0  0  0  0  0  0  0  0
  -26.0486   -0.9165  -11.8231 C   0  0  0  0  0  0  0  0  0  0  0  0
  -28.0646   -0.5759  -10.1619 H   0  0  0  0  0  0  0  0  0  0  0  0
  -17.5266    1.3503  -15.9485 O   0  0  0  0  0  0  0  0  0  0  0  0
  -14.9052    0.1369  -13.6939 C   0  0  0  0  0  0  0  0  0  0  0  0
  -13.8802    1.0494  -13.9640 C   0  0  0  0  0  0  0  0  0  0  0  0
  -14.0851    2.1194  -14.8337 C   0  0  0  0  0  0  0  0  0  0  0  0
  -15.3130    2.2775  -15.4648 C   0  0  0  0  0  0  0  0  0  0  0  0
  -16.3073    1.3107  -15.3044 C   0  0  0  0  0  0  0  0  0  0  0  0
  -16.1131    0.2574  -14.3970 C   0  0  0  0  0  0  0  0  0  0  0  0
  -14.5136   -2.2390  -13.0010 C   0  0  0  0  0  0  0  0  0  0  0  0
  -14.3397   -2.7175  -14.1179 O   0  0  0  0  0  0  0  0  0  0  0  0
  -14.7736   -0.8979  -12.7426 N   0  0  0  0  0  0  0  0  0  0  0  0
  -14.7717   -0.6424  -11.7631 H   0  0  0  0  0  0  0  0  0  0  0  0
  -16.5691   -4.4818  -11.8717 C   0  0  0  0  0  0  0  0  0  0  0  0
  -15.2857   -4.0164  -11.2842 C   0  0  0  0  0  0  0  0  0  0  0  0
  -14.6887   -4.4668  -10.0746 C   0  0  0  0  0  0  0  0  0  0  0  0
  -13.5136   -3.7708   -9.9359 C   0  0  0  0  0  0  0  0  0  0  0  0
  -13.3357   -2.9195  -10.9773 O   0  0  0  0  0  0  0  0  0  0  0  0
  -14.4231   -3.0564  -11.8021 C   0  0  0  0  0  0  0  0  0  0  0  0
 33 34  1  0  0  0
 34 35  1  0  0  0
 34 38  2  0  0  0
 35 36  2  0  0  0
 36 37  1  0  0  0
 37 38  1  0  0  0
 38 29  1  0  0  0
 29 30  2  0  0  0
 29 31  1  0  0  0
 31 23  1  0  0  0
 31 32  1  0  0  0
 23 24  1  0  0  0
 23 28  2  0  0  0
 24 25  2  0  0  0
 25 26  1  0  0  0
 26 27  2  0  0  0
 27 22  1  0  0  0
 27 28  1  0  0  0
 22  1  1  0  0  0
  1  2  1  0  0  0
  1  6  2  0  0  0
  2  3  2  0  0  0
  3  4  1  0  0  0
  4  5  2  0  0  0
  5  7  1  0  0  0
  5  6  1  0  0  0
  7  8  2  0  0  0
  7 11  1  0  0  0
  8  9  1  0  0  0
  9 13  1  0  0  0
  9 10  2  0  0  0
 13 14  2  0  0  0
 13 15  1  0  0  0
 15 16  1  0  0  0
 15 20  1  0  0  0
 16 17  1  0  0  0
 17 18  1  0  0  0
 18 19  1  0  0  0
 18 20  1  0  0  0
 19 21  1  0  0  0
 10 11  1  0  0  0
 11 12  1  0  0  0
M  END
> <minimizedAffinity>
-9.92210

$$$$
