CHEMBL54283


 37 41  0  0  0  0  0  0  0  0999 V2000
  -29.2201   -3.6165   -6.8237 C   0  0  0  0  0  0  0  0  0  0  0  0
  -29.7642   -2.9923   -5.7254 N   0  0  0  0  0  0  0  0  0  0  0  0
  -29.3479   -1.6923   -5.6722 C   0  0  0  0  0  0  0  0  0  0  0  0
  -28.5229   -1.4506   -6.7535 C   0  0  0  0  0  0  0  0  0  0  0  0
  -28.4202   -2.6858   -7.4824 C   0  0  0  0  0  0  0  0  0  0  0  0
  -27.9829   -0.0758   -7.0317 C   0  0  0  0  0  0  0  0  0  0  0  0
  -28.1744    0.8825   -5.8364 C   0  0  0  0  0  0  0  0  0  0  0  0
  -29.5555    0.7287   -5.1814 C   0  0  0  0  0  0  0  0  0  0  0  0
  -29.7635   -0.6989   -4.6417 C   0  0  0  0  0  0  0  0  0  0  0  0
  -30.4151   -3.4188   -5.0807 H   0  0  0  0  0  0  0  0  0  0  0  0
  -30.3494   -9.5876   -7.0659 C   0  0  0  0  0  0  0  0  0  0  0  0
  -29.7479  -10.1855   -5.9411 C   0  0  0  0  0  0  0  0  0  0  0  0
  -29.0106   -9.4089   -5.0528 C   0  0  0  0  0  0  0  0  0  0  0  0
  -28.9055   -8.0598   -5.3203 C   0  0  0  0  0  0  0  0  0  0  0  0
  -29.5083   -7.4324   -6.4265 C   0  0  0  0  0  0  0  0  0  0  0  0
  -30.2537   -8.1989   -7.3142 C   0  0  0  0  0  0  0  0  0  0  0  0
  -29.1500   -5.9969   -6.3132 C   0  0  0  0  0  0  0  0  0  0  0  0
  -29.5533   -4.9760   -7.0906 C   0  0  0  0  0  0  0  0  0  0  0  0
  -28.2532   -5.8675   -5.0974 C   0  0  0  0  0  0  0  0  0  0  0  0
  -27.6598   -4.8987   -4.6669 O   0  0  0  0  0  0  0  0  0  0  0  0
  -28.1969   -7.1418   -4.5593 N   0  0  0  0  0  0  0  0  0  0  0  0
  -27.6655   -7.3457   -3.7265 H   0  0  0  0  0  0  0  0  0  0  0  0
  -31.3432  -10.6286   -8.1283 S   0  0  0  0  0  0  0  0  0  0  0  0
  -30.4322  -11.2553   -9.0701 O   0  0  0  0  0  0  0  0  0  0  0  0
  -32.4553   -9.8223   -8.5916 O   0  0  0  0  0  0  0  0  0  0  0  0
  -33.2563  -11.4218   -6.3443 C   0  0  0  0  0  0  0  0  0  0  0  0
  -31.9862  -11.8841   -7.0370 C   0  0  0  0  0  0  0  0  0  0  0  0
  -27.6601   -2.9558   -8.7466 C   0  0  0  0  0  0  0  0  0  0  0  0
  -27.1636   -1.7009   -9.4537 C   0  0  0  0  0  0  0  0  0  0  0  0
  -27.4542   -1.6811  -10.9598 C   0  0  0  0  0  0  0  0  0  0  0  0
  -26.2515   -2.0061  -11.7479 N   0  0  0  0  0  0  0  0  0  0  0  0
  -26.2639   -1.3865  -13.0890 C   0  0  0  0  0  0  0  0  0  0  0  0
  -24.9701   -1.6724  -13.8829 C   0  0  0  0  0  0  0  0  0  0  0  0
  -23.7248   -1.2884  -13.1926 N   0  0  0  0  0  0  0  0  0  0  0  0
  -23.5640    0.1633  -13.1647 C   0  0  0  0  0  0  0  0  0  0  0  0
  -23.7451   -1.8622  -11.8306 C   0  0  0  0  0  0  0  0  0  0  0  0
  -25.0357   -1.5900  -11.0213 C   0  0  0  0  0  0  0  0  0  0  0  0
 26 27  1  0  0  0
 27 23  1  0  0  0
 23 24  2  0  0  0
 23 25  2  0  0  0
 23 11  1  0  0  0
 11 12  1  0  0  0
 11 16  2  0  0  0
 12 13  2  0  0  0
 13 14  1  0  0  0
 14 15  2  0  0  0
 14 21  1  0  0  0
 15 16  1  0  0  0
 15 17  1  0  0  0
 17 18  2  0  0  0
 17 19  1  0  0  0
 18  1  1  0  0  0
  1  2  1  0  0  0
  1  5  2  0  0  0
  2  3  1  0  0  0
  2 10  1  0  0  0
  3  4  2  0  0  0
  3  9  1  0  0  0
  4  5  1  0  0  0
  4  6  1  0  0  0
  5 28  1  0  0  0
 28 29  1  0  0  0
 29 30  1  0  0  0
 30 31  1  0  0  0
 31 32  1  0  0  0
 31 37  1  0  0  0
 32 33  1  0  0  0
 33 34  1  0  0  0
 34 35  1  0  0  0
 34 36  1  0  0  0
 36 37  1  0  0  0
  6  7  1  0  0  0
  7  8  1  0  0  0
  8  9  1  0  0  0
 19 20  2  0  0  0
 19 21  1  0  0  0
 21 22  1  0  0  0
M  END
> <minimizedAffinity>
-10.24006

$$$$
