CHEMBL3984621


 36 40  0  0  0  0  0  0  0  0999 V2000
  -15.7334    0.0472  -13.1521 C   0  0  0  0  0  0  0  0  0  0  0  0
  -15.2299    0.6754  -12.2241 O   0  0  0  0  0  0  0  0  0  0  0  0
  -16.7529    0.6145  -14.0147 C   0  0  0  0  0  0  0  0  0  0  0  0
  -17.7196   -0.0921  -14.7117 C   0  0  0  0  0  0  0  0  0  0  0  0
  -18.6719    0.8358  -15.1893 C   0  0  0  0  0  0  0  0  0  0  0  0
  -19.9781    0.7063  -15.6901 C   0  0  0  0  0  0  0  0  0  0  0  0
  -20.8095    1.4027  -14.8033 C   0  0  0  0  0  0  0  0  0  0  0  0
  -20.5090    2.7537  -14.5802 C   0  0  0  0  0  0  0  0  0  0  0  0
  -19.1707    3.1702  -14.6584 C   0  0  0  0  0  0  0  0  0  0  0  0
  -18.2729    2.0968  -14.7377 C   0  0  0  0  0  0  0  0  0  0  0  0
  -16.9746    1.9536  -14.3037 N   0  0  0  0  0  0  0  0  0  0  0  0
  -16.4105    2.7189  -13.9594 H   0  0  0  0  0  0  0  0  0  0  0  0
  -21.3846    0.5941  -13.6337 C   0  0  0  0  0  0  0  0  0  0  0  0
  -22.6558   -0.0495  -13.9637 N   0  0  0  0  0  0  0  0  0  0  0  0
  -23.8041    0.7365  -13.4734 C   0  0  0  0  0  0  0  0  0  0  0  0
  -24.0565    0.6145  -11.9598 C   0  0  0  0  0  0  0  0  0  0  0  0
  -24.1688   -0.7525  -11.5471 O   0  0  0  0  0  0  0  0  0  0  0  0
  -22.9884   -1.4823  -11.8989 C   0  0  0  0  0  0  0  0  0  0  0  0
  -22.7334   -1.4201  -13.4128 C   0  0  0  0  0  0  0  0  0  0  0  0
  -15.9524   -2.5220  -11.4672 N   0  0  0  0  0  0  0  0  0  0  0  0
  -15.3811   -2.4248  -12.7086 C   0  0  0  0  0  0  0  0  0  0  0  0
  -15.2681   -1.2897  -13.4972 C   0  0  0  0  0  0  0  0  0  0  0  0
  -14.4896   -1.7151  -14.5881 C   0  0  0  0  0  0  0  0  0  0  0  0
  -14.2231   -3.0136  -14.5650 N   0  0  0  0  0  0  0  0  0  0  0  0
  -14.7005   -3.4604  -13.3756 N   0  0  0  0  0  0  0  0  0  0  0  0
  -16.1890   -1.6322  -11.0089 H   0  0  0  0  0  0  0  0  0  0  0  0
  -15.5641   -3.1700  -10.7855 H   0  0  0  0  0  0  0  0  0  0  0  0
  -14.4926   -4.8165  -12.9828 C   0  0  0  0  0  0  0  0  0  0  0  0
  -15.1592   -5.8453  -13.6771 C   0  0  0  0  0  0  0  0  0  0  0  0
  -14.9783   -7.1731  -13.2972 C   0  0  0  0  0  0  0  0  0  0  0  0
  -15.6164   -8.1935  -13.9354 O   0  0  0  0  0  0  0  0  0  0  0  0
  -14.1357   -7.5085  -12.2513 C   0  0  0  0  0  0  0  0  0  0  0  0
  -13.4553   -6.5052  -11.5707 C   0  0  0  0  0  0  0  0  0  0  0  0
  -13.6239   -5.1589  -11.9252 C   0  0  0  0  0  0  0  0  0  0  0  0
  -12.8029   -4.0320  -10.8948 Cl  0  0  0  0  0  0  0  0  0  0  0  0
  -16.1551   -7.8342  -14.6594 H   0  0  0  0  0  0  0  0  0  0  0  0
 20 21  1  0  0  0
 20 26  1  0  0  0
 20 27  1  0  0  0
 21 22  2  0  0  0
 21 25  1  0  0  0
 22  1  1  0  0  0
 22 23  1  0  0  0
  1  2  2  0  0  0
  1  3  1  0  0  0
  3  4  2  0  0  0
  3 11  1  0  0  0
  4  5  1  0  0  0
  5  6  1  0  0  0
  5 10  2  0  0  0
  6  7  2  0  0  0
  7 13  1  0  0  0
  7  8  1  0  0  0
 13 14  1  0  0  0
 14 15  1  0  0  0
 14 19  1  0  0  0
 15 16  1  0  0  0
 16 17  1  0  0  0
 17 18  1  0  0  0
 18 19  1  0  0  0
  8  9  2  0  0  0
  9 10  1  0  0  0
 10 11  1  0  0  0
 11 12  1  0  0  0
 23 24  2  0  0  0
 24 25  1  0  0  0
 25 28  1  0  0  0
 28 29  1  0  0  0
 28 34  2  0  0  0
 29 30  2  0  0  0
 30 31  1  0  0  0
 30 32  1  0  0  0
 31 36  1  0  0  0
 32 33  2  0  0  0
 33 34  1  0  0  0
 34 35  1  0  0  0
M  END
> <minimizedAffinity>
-8.78747

$$$$
