CHEMBL3896142


 35 39  0  0  0  0  0  0  0  0999 V2000
  -30.0269   -6.0663   -5.8100 N   0  0  0  0  0  0  0  0  0  0  0  0
  -29.4303   -4.8101   -6.1005 C   0  0  0  0  0  0  0  0  0  0  0  0
  -29.3726   -3.7653   -5.1695 C   0  0  0  0  0  0  0  0  0  0  0  0
  -28.9182   -2.4981   -5.5388 C   0  0  0  0  0  0  0  0  0  0  0  0
  -28.4587   -2.2515   -6.8185 C   0  0  0  0  0  0  0  0  0  0  0  0
  -28.0417   -1.0149   -7.1358 N   0  0  0  0  0  0  0  0  0  0  0  0
  -27.5689   -0.8539   -8.3933 C   0  0  0  0  0  0  0  0  0  0  0  0
  -27.5018   -1.8895   -9.3145 C   0  0  0  0  0  0  0  0  0  0  0  0
  -27.9504   -3.1297   -9.0033 N   0  0  0  0  0  0  0  0  0  0  0  0
  -28.4326   -3.3091   -7.7580 C   0  0  0  0  0  0  0  0  0  0  0  0
  -28.9267   -4.5515   -7.3865 C   0  0  0  0  0  0  0  0  0  0  0  0
  -26.9070   -1.7095  -10.6225 C   0  0  0  0  0  0  0  0  0  0  0  0
  -27.4844   -1.6944  -11.9124 C   0  0  0  0  0  0  0  0  0  0  0  0
  -26.5956   -1.4415  -12.8759 N   0  0  0  0  0  0  0  0  0  0  0  0
  -25.4411   -1.2852  -12.2035 N   0  0  0  0  0  0  0  0  0  0  0  0
  -24.2347   -0.9348  -12.9115 C   0  0  0  0  0  0  0  0  0  0  0  0
  -25.5710   -1.4518  -10.8568 C   0  0  0  0  0  0  0  0  0  0  0  0
  -31.4111   -8.9079   -7.9019 C   0  0  0  0  0  0  0  0  0  0  0  0
  -31.3081   -7.8723   -6.9552 C   0  0  0  0  0  0  0  0  0  0  0  0
  -30.1091   -7.1604   -6.7134 C   0  0  0  0  0  0  0  0  0  0  0  0
  -28.9843   -7.5544   -7.4628 C   0  0  0  0  0  0  0  0  0  0  0  0
  -29.1061   -8.5530   -8.4127 C   0  0  0  0  0  0  0  0  0  0  0  0
  -30.2905   -9.2187   -8.6409 C   0  0  0  0  0  0  0  0  0  0  0  0
  -30.1720  -10.1181   -9.6499 O   0  0  0  0  0  0  0  0  0  0  0  0
  -28.8146   -9.8958  -10.0780 C   0  0  0  0  0  0  0  0  0  0  0  0
  -28.1041   -8.9683   -9.2383 O   0  0  0  0  0  0  0  0  0  0  0  0
  -33.0310  -10.3918   -7.0195 C   0  0  0  0  0  0  0  0  0  0  0  0
  -32.6591   -9.4580   -8.0273 O   0  0  0  0  0  0  0  0  0  0  0  0
  -30.4569   -6.2634   -4.3979 C   0  0  0  0  0  0  0  0  0  0  0  0
  -29.4258   -7.0505   -3.5336 C   0  0  0  0  0  0  0  0  0  0  0  0
  -29.5898   -8.5070   -3.4574 N   0  0  0  0  0  0  0  0  0  0  0  0
  -30.3926   -8.7677   -4.0365 H   0  0  0  0  0  0  0  0  0  0  0  0
  -28.4176   -9.2841   -3.8637 C   0  0  0  0  0  0  0  0  0  0  0  0
  -28.7260  -10.3369   -4.9290 C   0  0  0  0  0  0  0  0  0  0  0  0
  -27.3478   -8.3178   -4.3722 C   0  0  0  0  0  0  0  0  0  0  0  0
 27 28  1  0  0  0
 28 18  1  0  0  0
 18 19  1  0  0  0
 18 23  2  0  0  0
 19 20  2  0  0  0
 20  1  1  0  0  0
 20 21  1  0  0  0
  1 29  1  0  0  0
  1  2  1  0  0  0
 29 30  1  0  0  0
 30 31  1  0  0  0
 31 33  1  0  0  0
 31 32  1  0  0  0
 33 34  1  0  0  0
 33 35  1  0  0  0
  2  3  1  0  0  0
  2 11  2  0  0  0
  3  4  2  0  0  0
  4  5  1  0  0  0
  5  6  1  0  0  0
  5 10  2  0  0  0
  6  7  2  0  0  0
  7  8  1  0  0  0
  8 12  1  0  0  0
  8  9  2  0  0  0
 12 13  1  0  0  0
 12 17  2  0  0  0
 13 14  2  0  0  0
 14 15  1  0  0  0
 15 16  1  0  0  0
 15 17  1  0  0  0
  9 10  1  0  0  0
 10 11  1  0  0  0
 21 22  2  0  0  0
 22 23  1  0  0  0
 22 26  1  0  0  0
 23 24  1  0  0  0
 24 25  1  0  0  0
 25 26  1  0  0  0
M  END
> <minimizedAffinity>
-8.89021

$$$$
