CHEMBL2419760


 27 31  0  0  0  0  0  0  0  0999 V2000
  -30.7208   -7.3838   -5.5585 N   0  0  0  0  0  0  0  0  0  0  0  0
  -31.5833   -7.7982   -5.9416 H   0  0  0  0  0  0  0  0  0  0  0  0
  -29.4948   -8.1566   -5.6975 C   0  0  0  0  0  0  0  0  0  0  0  0
  -28.6740   -8.2283   -4.6214 N   0  0  0  0  0  0  0  0  0  0  0  0
  -27.5002   -8.8831   -4.5864 C   0  0  0  0  0  0  0  0  0  0  0  0
  -27.0654   -9.5302   -5.6748 N   0  0  0  0  0  0  0  0  0  0  0  0
  -27.7902   -9.5371   -6.8133 C   0  0  0  0  0  0  0  0  0  0  0  0
  -27.2485  -10.2271   -7.9007 C   0  0  0  0  0  0  0  0  0  0  0  0
  -27.9452  -10.2337   -9.0794 C   0  0  0  0  0  0  0  0  0  0  0  0
  -29.1339   -9.6129   -9.2230 C   0  0  0  0  0  0  0  0  0  0  0  0
  -29.7491   -8.9041   -8.1557 C   0  0  0  0  0  0  0  0  0  0  0  0
  -29.0590   -8.8486   -6.8968 C   0  0  0  0  0  0  0  0  0  0  0  0
  -29.5404   -9.7995  -10.4900 O   0  0  0  0  0  0  0  0  0  0  0  0
  -28.5586  -10.5488  -11.1566 C   0  0  0  0  0  0  0  0  0  0  0  0
  -27.5727  -10.8118  -10.2227 O   0  0  0  0  0  0  0  0  0  0  0  0
  -30.1662   -3.6365   -4.9165 C   0  0  0  0  0  0  0  0  0  0  0  0
  -30.9881   -3.4363   -3.7970 C   0  0  0  0  0  0  0  0  0  0  0  0
  -31.7323   -4.4764   -3.2736 C   0  0  0  0  0  0  0  0  0  0  0  0
  -31.6696   -5.7503   -3.8274 C   0  0  0  0  0  0  0  0  0  0  0  0
  -30.8494   -6.0473   -4.9588 C   0  0  0  0  0  0  0  0  0  0  0  0
  -30.1135   -4.9473   -5.4934 C   0  0  0  0  0  0  0  0  0  0  0  0
  -27.9154   -0.2666   -6.4647 C   0  0  0  0  0  0  0  0  0  0  0  0
  -27.9164   -1.4729   -7.1598 C   0  0  0  0  0  0  0  0  0  0  0  0
  -28.6362   -2.5694   -6.6619 C   0  0  0  0  0  0  0  0  0  0  0  0
  -29.3852   -2.4662   -5.4611 C   0  0  0  0  0  0  0  0  0  0  0  0
  -29.3670   -1.2336   -4.7793 C   0  0  0  0  0  0  0  0  0  0  0  0
  -28.6300   -0.1504   -5.2733 C   0  0  0  0  0  0  0  0  0  0  0  0
 22 23  1  0  0  0
 22 27  2  0  0  0
 23 24  2  0  0  0
 24 25  1  0  0  0
 25 16  1  0  0  0
 25 26  2  0  0  0
 16 17  1  0  0  0
 16 21  2  0  0  0
 17 18  2  0  0  0
 18 19  1  0  0  0
 19 20  2  0  0  0
 20  1  1  0  0  0
 20 21  1  0  0  0
  1  3  1  0  0  0
  1  2  1  0  0  0
  3  4  1  0  0  0
  3 12  2  0  0  0
  4  5  2  0  0  0
  5  6  1  0  0  0
  6  7  2  0  0  0
  7  8  1  0  0  0
  7 12  1  0  0  0
  8  9  2  0  0  0
  9 10  1  0  0  0
  9 15  1  0  0  0
 10 11  2  0  0  0
 10 13  1  0  0  0
 11 12  1  0  0  0
 13 14  1  0  0  0
 14 15  1  0  0  0
 26 27  1  0  0  0
M  END
> <minimizedAffinity>
-9.19988

$$$$
