CHEMBL187627


 47 51  0  0  0  0  0  0  0  0999 V2000
  -21.9414    0.7643  -14.5216 C   0  0  0  0  0  0  0  0  0  0  0  0
  -21.6101    2.0538  -14.0958 C   0  0  0  0  0  0  0  0  0  0  0  0
  -20.3322    2.5782  -14.2631 C   0  0  0  0  0  0  0  0  0  0  0  0
  -19.3095    1.8295  -14.8435 C   0  0  0  0  0  0  0  0  0  0  0  0
  -19.6068    0.4977  -15.1732 C   0  0  0  0  0  0  0  0  0  0  0  0
  -20.9095   -0.0303  -15.0232 C   0  0  0  0  0  0  0  0  0  0  0  0
  -25.1575   -0.6534  -13.4290 N   0  0  0  0  0  0  0  0  0  0  0  0
  -23.8568   -0.1894  -13.3038 C   0  0  0  0  0  0  0  0  0  0  0  0
  -23.2682   -0.1680  -12.2256 O   0  0  0  0  0  0  0  0  0  0  0  0
  -23.2782    0.2661  -14.4739 N   0  0  0  0  0  0  0  0  0  0  0  0
  -25.4713   -0.9567  -14.3383 H   0  0  0  0  0  0  0  0  0  0  0  0
  -23.8880    0.4805  -15.2491 H   0  0  0  0  0  0  0  0  0  0  0  0
  -27.4882   -1.8018  -10.0416 C   0  0  0  0  0  0  0  0  0  0  0  0
  -28.0774   -1.5460  -11.2759 C   0  0  0  0  0  0  0  0  0  0  0  0
  -27.3042   -1.2574  -12.3872 C   0  0  0  0  0  0  0  0  0  0  0  0
  -25.9230   -1.0645  -12.2955 C   0  0  0  0  0  0  0  0  0  0  0  0
  -25.3192   -1.2754  -11.0518 C   0  0  0  0  0  0  0  0  0  0  0  0
  -26.0965   -1.6613   -9.9355 C   0  0  0  0  0  0  0  0  0  0  0  0
  -28.3843   -2.2473   -8.9040 C   0  0  0  0  0  0  0  0  0  0  0  0
  -30.9818   -3.7626   -5.0590 C   0  0  0  0  0  0  0  0  0  0  0  0
  -29.6580   -3.7409   -5.6728 N   0  0  0  0  0  0  0  0  0  0  0  0
  -29.6710   -4.4145   -6.9808 C   0  0  0  0  0  0  0  0  0  0  0  0
  -28.2654   -4.3885   -7.6270 C   0  0  0  0  0  0  0  0  0  0  0  0
  -27.7076   -3.0328   -7.8509 N   0  0  0  0  0  0  0  0  0  0  0  0
  -27.7728   -2.3181   -6.5511 C   0  0  0  0  0  0  0  0  0  0  0  0
  -29.1522   -2.3648   -5.8333 C   0  0  0  0  0  0  0  0  0  0  0  0
  -18.0753    2.4401  -15.1235 N   0  0  0  0  0  0  0  0  0  0  0  0
  -18.0544    3.6191  -15.9867 C   0  0  0  0  0  0  0  0  0  0  0  0
  -16.7887    1.9289  -14.8049 C   0  0  0  0  0  0  0  0  0  0  0  0
  -15.6915    2.3011  -15.5603 C   0  0  0  0  0  0  0  0  0  0  0  0
  -14.4756    1.7679  -15.2098 C   0  0  0  0  0  0  0  0  0  0  0  0
  -14.3044    0.9247  -14.1809 N   0  0  0  0  0  0  0  0  0  0  0  0
  -15.4107    0.5800  -13.5113 C   0  0  0  0  0  0  0  0  0  0  0  0
  -16.6388    1.0545  -13.7961 N   0  0  0  0  0  0  0  0  0  0  0  0
  -15.2446   -0.3315  -12.4660 N   0  0  0  0  0  0  0  0  0  0  0  0
  -14.4065   -0.1029  -11.9497 H   0  0  0  0  0  0  0  0  0  0  0  0
  -15.6077   -1.6870  -12.4539 C   0  0  0  0  0  0  0  0  0  0  0  0
  -15.6666   -2.4246  -11.2664 C   0  0  0  0  0  0  0  0  0  0  0  0
  -15.9230   -3.7937  -11.2735 C   0  0  0  0  0  0  0  0  0  0  0  0
  -16.1517   -4.4705  -12.4736 C   0  0  0  0  0  0  0  0  0  0  0  0
  -16.1249   -3.7325  -13.6674 C   0  0  0  0  0  0  0  0  0  0  0  0
  -15.8585   -2.3552  -13.6544 C   0  0  0  0  0  0  0  0  0  0  0  0
  -16.2939   -5.9699  -12.4968 C   0  0  0  0  0  0  0  0  0  0  0  0
  -14.7470   -6.8155  -12.8403 S   0  0  0  0  0  0  0  0  0  0  0  0
  -13.9155   -6.8790  -11.2759 C   0  0  0  0  0  0  0  0  0  0  0  0
  -15.0932   -8.1810  -13.1890 O   0  0  0  0  0  0  0  0  0  0  0  0
  -13.9363   -6.0275  -13.7540 O   0  0  0  0  0  0  0  0  0  0  0  0
 20 21  1  0  0  0
 21 22  1  0  0  0
 21 26  1  0  0  0
 22 23  1  0  0  0
 23 24  1  0  0  0
 24 19  1  0  0  0
 24 25  1  0  0  0
 19 13  1  0  0  0
 13 14  1  0  0  0
 13 18  2  0  0  0
 14 15  2  0  0  0
 15 16  1  0  0  0
 16  7  1  0  0  0
 16 17  2  0  0  0
  7  8  1  0  0  0
  7 11  1  0  0  0
  8  9  2  0  0  0
  8 10  1  0  0  0
 10  1  1  0  0  0
 10 12  1  0  0  0
  1  2  1  0  0  0
  1  6  2  0  0  0
  2  3  2  0  0  0
  3  4  1  0  0  0
  4 27  1  0  0  0
  4  5  2  0  0  0
 27 28  1  0  0  0
 27 29  1  0  0  0
 29 30  1  0  0  0
 29 34  2  0  0  0
 30 31  2  0  0  0
 31 32  1  0  0  0
 32 33  2  0  0  0
 33 35  1  0  0  0
 33 34  1  0  0  0
 35 37  1  0  0  0
 35 36  1  0  0  0
 37 38  1  0  0  0
 37 42  2  0  0  0
 38 39  2  0  0  0
 39 40  1  0  0  0
 40 43  1  0  0  0
 40 41  2  0  0  0
 43 44  1  0  0  0
 44 45  1  0  0  0
 44 46  2  0  0  0
 44 47  2  0  0  0
 41 42  1  0  0  0
  5  6  1  0  0  0
 17 18  1  0  0  0
 25 26  1  0  0  0
M  END
> <minimizedAffinity>
-10.50053

$$$$
