CHEMBL1289926


 30 33  0  0  0  0  0  0  0  0999 V2000
  -29.6771   -9.2734   -6.5494 C   0  0  0  0  0  0  0  0  0  0  0  0
  -30.8610   -8.5828   -6.8601 C   0  0  0  0  0  0  0  0  0  0  0  0
  -31.0906   -7.2677   -6.3943 C   0  0  0  0  0  0  0  0  0  0  0  0
  -30.1676   -6.7168   -5.4840 C   0  0  0  0  0  0  0  0  0  0  0  0
  -29.8996   -5.4905   -4.7772 C   0  0  0  0  0  0  0  0  0  0  0  0
  -29.5157   -5.8740   -3.5406 N   0  0  0  0  0  0  0  0  0  0  0  0
  -28.7702   -6.9580   -3.8297 N   0  0  0  0  0  0  0  0  0  0  0  0
  -29.1564   -7.5497   -5.0114 C   0  0  0  0  0  0  0  0  0  0  0  0
  -28.7812   -8.7428   -5.6191 C   0  0  0  0  0  0  0  0  0  0  0  0
  -28.1117   -7.2968   -3.1514 H   0  0  0  0  0  0  0  0  0  0  0  0
  -29.1453   -4.3348   -5.2557 C   0  0  0  0  0  0  0  0  0  0  0  0
  -28.5167   -3.4568   -4.4475 C   0  0  0  0  0  0  0  0  0  0  0  0
  -28.5703   -1.9894   -4.6815 C   0  0  0  0  0  0  0  0  0  0  0  0
  -29.7928   -1.3718   -4.9311 C   0  0  0  0  0  0  0  0  0  0  0  0
  -29.8138   -0.0574   -5.3942 C   0  0  0  0  0  0  0  0  0  0  0  0
  -28.6085    0.6066   -5.6170 C   0  0  0  0  0  0  0  0  0  0  0  0
  -27.4379   -0.0747   -5.3377 C   0  0  0  0  0  0  0  0  0  0  0  0
  -27.3944   -1.3458   -4.8733 N   0  0  0  0  0  0  0  0  0  0  0  0
  -29.3637  -10.9369   -7.1248 S   0  0  0  0  0  0  0  0  0  0  0  0
  -27.2136  -10.6903   -8.9810 C   0  0  0  0  0  0  0  0  0  0  0  0
  -26.7571  -10.4506  -10.2953 C   0  0  0  0  0  0  0  0  0  0  0  0
  -27.6554  -10.2127  -11.3423 C   0  0  0  0  0  0  0  0  0  0  0  0
  -29.0180  -10.2167  -11.0780 C   0  0  0  0  0  0  0  0  0  0  0  0
  -29.4799  -10.4310   -9.7820 C   0  0  0  0  0  0  0  0  0  0  0  0
  -28.5935  -10.6524   -8.7165 C   0  0  0  0  0  0  0  0  0  0  0  0
  -24.8202  -10.1826   -6.0826 C   0  0  0  0  0  0  0  0  0  0  0  0
  -25.7508   -9.9658   -7.1563 N   0  0  0  0  0  0  0  0  0  0  0  0
  -26.1450  -11.0012   -7.9881 C   0  0  0  0  0  0  0  0  0  0  0  0
  -25.7099  -12.1432   -7.8750 O   0  0  0  0  0  0  0  0  0  0  0  0
  -26.2050   -9.0694   -7.2500 H   0  0  0  0  0  0  0  0  0  0  0  0
 26 27  1  0  0  0
 27 28  1  0  0  0
 27 30  1  0  0  0
 28 29  2  0  0  0
 28 20  1  0  0  0
 20 21  1  0  0  0
 20 25  2  0  0  0
 21 22  2  0  0  0
 22 23  1  0  0  0
 23 24  2  0  0  0
 24 25  1  0  0  0
 25 19  1  0  0  0
 19  1  1  0  0  0
  1  2  1  0  0  0
  1  9  2  0  0  0
  2  3  2  0  0  0
  3  4  1  0  0  0
  4  5  1  0  0  0
  4  8  2  0  0  0
  5 11  1  0  0  0
  5  6  2  0  0  0
 11 12  2  0  0  0
 12 13  1  0  0  0
 13 14  1  0  0  0
 13 18  2  0  0  0
 14 15  2  0  0  0
 15 16  1  0  0  0
 16 17  2  0  0  0
 17 18  1  0  0  0
  6  7  1  0  0  0
  7  8  1  0  0  0
  7 10  1  0  0  0
  8  9  1  0  0  0
M  END
> <minimizedAffinity>
-8.59957

$$$$
