CHEMBL74550


 26 29  0  0  0  0  0  0  0  0999 V2000
  -28.2139   -2.3766   -8.4744 C   0  0  0  0  0  0  0  0  0  0  0  0
  -28.2531   -3.7181   -8.3194 N   0  0  0  0  0  0  0  0  0  0  0  0
  -28.2128   -4.2906   -7.0793 N   0  0  0  0  0  0  0  0  0  0  0  0
  -28.1055   -3.5221   -5.9742 C   0  0  0  0  0  0  0  0  0  0  0  0
  -28.0327   -2.1220   -6.0727 C   0  0  0  0  0  0  0  0  0  0  0  0
  -27.8937   -1.2521   -4.9816 C   0  0  0  0  0  0  0  0  0  0  0  0
  -27.8493    0.0979   -5.0595 N   0  0  0  0  0  0  0  0  0  0  0  0
  -27.9253    0.6333   -6.2891 C   0  0  0  0  0  0  0  0  0  0  0  0
  -28.0454   -0.1213   -7.4426 C   0  0  0  0  0  0  0  0  0  0  0  0
  -28.1053   -1.5299   -7.3523 C   0  0  0  0  0  0  0  0  0  0  0  0
  -28.2913   -1.8176   -9.7788 N   0  0  0  0  0  0  0  0  0  0  0  0
  -29.1646   -2.0953  -10.2132 H   0  0  0  0  0  0  0  0  0  0  0  0
  -23.8681   -1.2253  -13.7017 Cl  0  0  0  0  0  0  0  0  0  0  0  0
  -25.1430   -1.4149  -12.5632 C   0  0  0  0  0  0  0  0  0  0  0  0
  -26.4496   -1.6022  -13.0076 C   0  0  0  0  0  0  0  0  0  0  0  0
  -27.4886   -1.7428  -12.0802 C   0  0  0  0  0  0  0  0  0  0  0  0
  -27.2274   -1.7227  -10.7028 C   0  0  0  0  0  0  0  0  0  0  0  0
  -25.9058   -1.5189  -10.2785 C   0  0  0  0  0  0  0  0  0  0  0  0
  -24.8666   -1.3698  -11.2012 C   0  0  0  0  0  0  0  0  0  0  0  0
  -28.0832   -4.2817   -4.6691 C   0  0  0  0  0  0  0  0  0  0  0  0
  -29.4457   -4.6484   -4.1293 C   0  0  0  0  0  0  0  0  0  0  0  0
  -30.3216   -3.6692   -3.6486 C   0  0  0  0  0  0  0  0  0  0  0  0
  -31.5736   -4.0594   -3.1962 C   0  0  0  0  0  0  0  0  0  0  0  0
  -32.0083   -5.3368   -3.1911 N   0  0  0  0  0  0  0  0  0  0  0  0
  -31.1530   -6.2679   -3.6627 C   0  0  0  0  0  0  0  0  0  0  0  0
  -29.8829   -5.9780   -4.1366 C   0  0  0  0  0  0  0  0  0  0  0  0
 13 14  1  0  0  0
 14 15  1  0  0  0
 14 19  2  0  0  0
 15 16  2  0  0  0
 16 17  1  0  0  0
 17 11  1  0  0  0
 17 18  2  0  0  0
 11  1  1  0  0  0
 11 12  1  0  0  0
  1  2  1  0  0  0
  1 10  2  0  0  0
  2  3  2  0  0  0
  3  4  1  0  0  0
  4 20  1  0  0  0
  4  5  2  0  0  0
 20 21  1  0  0  0
 21 22  1  0  0  0
 21 26  2  0  0  0
 22 23  2  0  0  0
 23 24  1  0  0  0
 24 25  2  0  0  0
 25 26  1  0  0  0
  5  6  1  0  0  0
  5 10  1  0  0  0
  6  7  2  0  0  0
  7  8  1  0  0  0
  8  9  2  0  0  0
  9 10  1  0  0  0
 18 19  1  0  0  0
M  END
> <minimizedAffinity>
-8.18585

$$$$
