CHEMBL3959573


 34 37  0  0  0  0  0  0  0  0999 V2000
  -27.6239   -1.7934   -9.0648 C   0  0  0  0  0  0  0  0  0  0  0  0
  -27.5708   -0.7544   -8.1173 C   0  0  0  0  0  0  0  0  0  0  0  0
  -28.1293   -0.9374   -6.8868 N   0  0  0  0  0  0  0  0  0  0  0  0
  -28.7294   -2.1130   -6.5524 C   0  0  0  0  0  0  0  0  0  0  0  0
  -29.2861   -2.3121   -5.2823 C   0  0  0  0  0  0  0  0  0  0  0  0
  -29.8637   -3.5508   -4.9461 C   0  0  0  0  0  0  0  0  0  0  0  0
  -29.8836   -4.6232   -5.8778 C   0  0  0  0  0  0  0  0  0  0  0  0
  -29.3541   -4.3709   -7.1660 C   0  0  0  0  0  0  0  0  0  0  0  0
  -28.7761   -3.1474   -7.4925 C   0  0  0  0  0  0  0  0  0  0  0  0
  -28.2320   -2.9586   -8.7202 N   0  0  0  0  0  0  0  0  0  0  0  0
  -25.5611   -1.5323  -12.0498 N   0  0  0  0  0  0  0  0  0  0  0  0
  -25.6899   -1.6566  -10.7148 C   0  0  0  0  0  0  0  0  0  0  0  0
  -27.0384   -1.6748  -10.4164 C   0  0  0  0  0  0  0  0  0  0  0  0
  -27.6839   -1.5536  -11.6360 C   0  0  0  0  0  0  0  0  0  0  0  0
  -26.7594   -1.4691  -12.6125 N   0  0  0  0  0  0  0  0  0  0  0  0
  -24.3011   -1.4828  -12.7904 C   0  0  0  0  0  0  0  0  0  0  0  0
  -22.4136    0.0931  -13.3653 C   0  0  0  0  0  0  0  0  0  0  0  0
  -23.4465   -0.3044  -12.3136 C   0  0  0  0  0  0  0  0  0  0  0  0
  -30.3984   -5.9501   -5.5685 N   0  0  0  0  0  0  0  0  0  0  0  0
  -30.3313   -6.9953   -6.5801 C   0  0  0  0  0  0  0  0  0  0  0  0
  -29.1469   -7.2209   -7.3209 C   0  0  0  0  0  0  0  0  0  0  0  0
  -29.0623   -8.2351   -8.2907 C   0  0  0  0  0  0  0  0  0  0  0  0
  -30.1720   -9.0452   -8.5292 C   0  0  0  0  0  0  0  0  0  0  0  0
  -31.3548   -8.8703   -7.7918 C   0  0  0  0  0  0  0  0  0  0  0  0
  -31.4195   -7.8623   -6.8261 C   0  0  0  0  0  0  0  0  0  0  0  0
  -27.9271   -8.4700   -8.9999 O   0  0  0  0  0  0  0  0  0  0  0  0
  -27.1202   -9.5833   -8.8773 C   0  0  0  0  0  0  0  0  0  0  0  0
  -32.4502   -9.6537   -7.9689 O   0  0  0  0  0  0  0  0  0  0  0  0
  -33.0518  -10.4286   -7.0007 C   0  0  0  0  0  0  0  0  0  0  0  0
  -30.7048   -6.3649   -4.1902 C   0  0  0  0  0  0  0  0  0  0  0  0
  -29.4856   -6.9447   -3.4475 C   0  0  0  0  0  0  0  0  0  0  0  0
  -29.5135   -8.4002   -3.4212 N   0  0  0  0  0  0  0  0  0  0  0  0
  -30.3202   -8.7048   -2.8301 H   0  0  0  0  0  0  0  0  0  0  0  0
  -28.6409   -8.7237   -2.9413 H   0  0  0  0  0  0  0  0  0  0  0  0
 17 18  1  0  0  0
 18 16  1  0  0  0
 16 11  1  0  0  0
 11 12  1  0  0  0
 11 15  1  0  0  0
 12 13  2  0  0  0
 13  1  1  0  0  0
 13 14  1  0  0  0
  1  2  1  0  0  0
  1 10  2  0  0  0
  2  3  2  0  0  0
  3  4  1  0  0  0
  4  5  1  0  0  0
  4  9  2  0  0  0
  5  6  2  0  0  0
  6  7  1  0  0  0
  7 19  1  0  0  0
  7  8  2  0  0  0
 19 30  1  0  0  0
 19 20  1  0  0  0
 30 31  1  0  0  0
 31 32  1  0  0  0
 32 33  1  0  0  0
 32 34  1  0  0  0
 20 21  1  0  0  0
 20 25  2  0  0  0
 21 22  2  0  0  0
 22 26  1  0  0  0
 22 23  1  0  0  0
 26 27  1  0  0  0
 23 24  2  0  0  0
 24 28  1  0  0  0
 24 25  1  0  0  0
 28 29  1  0  0  0
  8  9  1  0  0  0
  9 10  1  0  0  0
 14 15  2  0  0  0
M  END
> <minimizedAffinity>
-8.92735

$$$$
