CHEMBL196020


 32 35  0  0  0  0  0  0  0  0999 V2000
  -15.7759    0.9114  -14.5435 C   0  0  0  0  0  0  0  0  0  0  0  0
  -14.5083    0.9228  -13.9617 C   0  0  0  0  0  0  0  0  0  0  0  0
  -13.9514   -0.2558  -13.4628 C   0  0  0  0  0  0  0  0  0  0  0  0
  -14.6883   -1.4480  -13.4307 C   0  0  0  0  0  0  0  0  0  0  0  0
  -16.0086   -1.4124  -13.8930 C   0  0  0  0  0  0  0  0  0  0  0  0
  -16.5336   -0.2595  -14.4853 C   0  0  0  0  0  0  0  0  0  0  0  0
  -14.0846   -2.7103  -12.9696 C   0  0  0  0  0  0  0  0  0  0  0  0
  -13.1424   -3.3982  -13.7385 C   0  0  0  0  0  0  0  0  0  0  0  0
  -12.5090   -3.1016  -15.0659 C   0  0  0  0  0  0  0  0  0  0  0  0
  -12.6463   -4.8565  -12.9889 S   0  0  0  0  0  0  0  0  0  0  0  0
  -13.6124   -4.5791  -11.6295 C   0  0  0  0  0  0  0  0  0  0  0  0
  -13.5911   -5.4729  -10.6274 N   0  0  0  0  0  0  0  0  0  0  0  0
  -14.3898   -5.1313   -9.6222 C   0  0  0  0  0  0  0  0  0  0  0  0
  -15.1746   -4.0521   -9.5472 N   0  0  0  0  0  0  0  0  0  0  0  0
  -15.1896   -3.1852  -10.5777 C   0  0  0  0  0  0  0  0  0  0  0  0
  -16.0690   -2.1233  -10.4048 N   0  0  0  0  0  0  0  0  0  0  0  0
  -14.3600   -3.4125  -11.7045 C   0  0  0  0  0  0  0  0  0  0  0  0
  -16.6588   -2.2997   -9.5974 H   0  0  0  0  0  0  0  0  0  0  0  0
  -16.5620   -1.8491  -11.2440 H   0  0  0  0  0  0  0  0  0  0  0  0
  -18.4977    1.7227  -14.3978 N   0  0  0  0  0  0  0  0  0  0  0  0
  -17.6612    2.4085  -15.2692 C   0  0  0  0  0  0  0  0  0  0  0  0
  -18.0394    3.2867  -16.0390 O   0  0  0  0  0  0  0  0  0  0  0  0
  -16.2966    2.0720  -15.1744 N   0  0  0  0  0  0  0  0  0  0  0  0
  -15.3381    2.8441  -15.9668 C   0  0  0  0  0  0  0  0  0  0  0  0
  -18.0568    1.0737  -13.7646 H   0  0  0  0  0  0  0  0  0  0  0  0
  -22.8700   -0.5354  -13.8650 C   0  0  0  0  0  0  0  0  0  0  0  0
  -22.0600    0.7238  -13.9935 C   0  0  0  0  0  0  0  0  0  0  0  0
  -22.6950    1.9679  -13.9870 C   0  0  0  0  0  0  0  0  0  0  0  0
  -21.9497    3.1353  -14.1199 C   0  0  0  0  0  0  0  0  0  0  0  0
  -20.5638    3.0726  -14.2668 C   0  0  0  0  0  0  0  0  0  0  0  0
  -19.8998    1.8465  -14.2670 C   0  0  0  0  0  0  0  0  0  0  0  0
  -20.6595    0.6714  -14.1252 C   0  0  0  0  0  0  0  0  0  0  0  0
 26 27  1  0  0  0
 27 28  1  0  0  0
 27 32  2  0  0  0
 28 29  2  0  0  0
 29 30  1  0  0  0
 30 31  2  0  0  0
 31 20  1  0  0  0
 31 32  1  0  0  0
 20 21  1  0  0  0
 20 25  1  0  0  0
 21 22  2  0  0  0
 21 23  1  0  0  0
 23 24  1  0  0  0
 23  1  1  0  0  0
  1  2  1  0  0  0
  1  6  2  0  0  0
  2  3  2  0  0  0
  3  4  1  0  0  0
  4  7  1  0  0  0
  4  5  2  0  0  0
  7  8  2  0  0  0
  7 17  1  0  0  0
  8  9  1  0  0  0
  8 10  1  0  0  0
 10 11  1  0  0  0
 11 12  1  0  0  0
 11 17  2  0  0  0
 12 13  2  0  0  0
 13 14  1  0  0  0
 14 15  2  0  0  0
 15 16  1  0  0  0
 15 17  1  0  0  0
 16 18  1  0  0  0
 16 19  1  0  0  0
  5  6  1  0  0  0
M  END
> <minimizedAffinity>
-8.91514

$$$$
