CHEMBL4742893


 34 37  0  0  0  0  0  0  0  0999 V2000
  -15.5300   -0.8853  -13.9246 C   0  0  0  0  0  0  0  0  0  0  0  0
  -16.4362    0.1425  -14.1756 C   0  0  0  0  0  0  0  0  0  0  0  0
  -15.9841    1.4293  -14.4906 C   0  0  0  0  0  0  0  0  0  0  0  0
  -14.6183    1.7235  -14.5405 C   0  0  0  0  0  0  0  0  0  0  0  0
  -13.7142    0.7246  -14.1769 C   0  0  0  0  0  0  0  0  0  0  0  0
  -14.1692   -0.5613  -13.8637 C   0  0  0  0  0  0  0  0  0  0  0  0
  -14.0913    2.9654  -14.9750 N   0  0  0  0  0  0  0  0  0  0  0  0
  -14.0543    3.4096  -16.2848 C   0  0  0  0  0  0  0  0  0  0  0  0
  -14.5662    2.8501  -17.2487 O   0  0  0  0  0  0  0  0  0  0  0  0
  -13.6819    3.5432  -14.2542 H   0  0  0  0  0  0  0  0  0  0  0  0
  -13.3348    4.6852  -16.5659 C   0  0  0  0  0  0  0  0  0  0  0  0
  -13.2866    5.2929  -17.8253 C   0  0  0  0  0  0  0  0  0  0  0  0
  -12.6635    6.5411  -17.9680 C   0  0  0  0  0  0  0  0  0  0  0  0
  -12.0990    7.1883  -16.8614 C   0  0  0  0  0  0  0  0  0  0  0  0
  -11.3783    8.7379  -17.1115 Cl  0  0  0  0  0  0  0  0  0  0  0  0
  -12.1480    6.5832  -15.6039 C   0  0  0  0  0  0  0  0  0  0  0  0
  -11.4956    7.3206  -14.1853 Cl  0  0  0  0  0  0  0  0  0  0  0  0
  -12.7616    5.3384  -15.4621 C   0  0  0  0  0  0  0  0  0  0  0  0
  -15.9890   -2.1987  -13.7048 N   0  0  0  0  0  0  0  0  0  0  0  0
  -15.9713   -2.7702  -14.5428 H   0  0  0  0  0  0  0  0  0  0  0  0
  -14.8231   -7.0958  -12.9346 C   0  0  0  0  0  0  0  0  0  0  0  0
  -14.8602   -6.4293  -11.6954 C   0  0  0  0  0  0  0  0  0  0  0  0
  -15.1225   -5.0735  -11.5813 C   0  0  0  0  0  0  0  0  0  0  0  0
  -15.2460   -4.5451  -10.3612 N   0  0  0  0  0  0  0  0  0  0  0  0
  -15.5936   -3.2571  -10.3005 C   0  0  0  0  0  0  0  0  0  0  0  0
  -15.8258   -2.4584  -11.3421 N   0  0  0  0  0  0  0  0  0  0  0  0
  -15.6833   -2.9949  -12.5690 C   0  0  0  0  0  0  0  0  0  0  0  0
  -15.3020   -4.3318  -12.7514 C   0  0  0  0  0  0  0  0  0  0  0  0
  -15.1482   -4.9675  -14.0022 C   0  0  0  0  0  0  0  0  0  0  0  0
  -14.9205   -6.3429  -14.1093 C   0  0  0  0  0  0  0  0  0  0  0  0
  -13.6389   -9.0174  -12.2043 C   0  0  0  0  0  0  0  0  0  0  0  0
  -14.6837   -8.4568  -13.0055 O   0  0  0  0  0  0  0  0  0  0  0  0
  -14.8636   -6.7342  -15.4151 O   0  0  0  0  0  0  0  0  0  0  0  0
  -13.6204   -7.0351  -16.0220 C   0  0  0  0  0  0  0  0  0  0  0  0
 31 32  1  0  0  0
 32 21  1  0  0  0
 21 22  1  0  0  0
 21 30  2  0  0  0
 22 23  2  0  0  0
 23 24  1  0  0  0
 23 28  1  0  0  0
 24 25  2  0  0  0
 25 26  1  0  0  0
 26 27  2  0  0  0
 27 19  1  0  0  0
 27 28  1  0  0  0
 19  1  1  0  0  0
 19 20  1  0  0  0
  1  2  1  0  0  0
  1  6  2  0  0  0
  2  3  2  0  0  0
  3  4  1  0  0  0
  4  7  1  0  0  0
  4  5  2  0  0  0
  7  8  1  0  0  0
  7 10  1  0  0  0
  8  9  2  0  0  0
  8 11  1  0  0  0
 11 12  1  0  0  0
 11 18  2  0  0  0
 12 13  2  0  0  0
 13 14  1  0  0  0
 14 15  1  0  0  0
 14 16  2  0  0  0
 16 17  1  0  0  0
 16 18  1  0  0  0
  5  6  1  0  0  0
 28 29  2  0  0  0
 29 30  1  0  0  0
 30 33  1  0  0  0
 33 34  1  0  0  0
M  END
> <minimizedAffinity>
-7.57756

$$$$
