CHEMBL2018761


 29 31  0  0  0  0  0  0  0  0999 V2000
  -28.6181   -5.8903   -5.5351 N   0  0  0  0  0  0  0  0  0  0  0  0
  -27.6308   -5.7345   -5.7027 H   0  0  0  0  0  0  0  0  0  0  0  0
  -29.2324   -4.7338   -4.9988 C   0  0  0  0  0  0  0  0  0  0  0  0
  -29.9457   -4.8669   -3.8701 N   0  0  0  0  0  0  0  0  0  0  0  0
  -30.4577   -3.7464   -3.3516 C   0  0  0  0  0  0  0  0  0  0  0  0
  -30.2872   -2.5067   -3.8356 N   0  0  0  0  0  0  0  0  0  0  0  0
  -29.5646   -2.3767   -4.9558 C   0  0  0  0  0  0  0  0  0  0  0  0
  -29.2565   -1.1076   -5.4470 C   0  0  0  0  0  0  0  0  0  0  0  0
  -28.4599   -0.8889   -6.5927 C   0  0  0  0  0  0  0  0  0  0  0  0
  -28.0038   -1.9915   -7.3126 C   0  0  0  0  0  0  0  0  0  0  0  0
  -28.3021   -3.2750   -6.8140 C   0  0  0  0  0  0  0  0  0  0  0  0
  -29.0380   -3.4825   -5.6258 C   0  0  0  0  0  0  0  0  0  0  0  0
  -28.0214    0.4045   -6.6979 O   0  0  0  0  0  0  0  0  0  0  0  0
  -28.9641    1.4470   -6.4979 C   0  0  0  0  0  0  0  0  0  0  0  0
  -27.2289   -2.1249   -8.4226 O   0  0  0  0  0  0  0  0  0  0  0  0
  -27.6419   -1.7445   -9.7118 C   0  0  0  0  0  0  0  0  0  0  0  0
  -29.0067   -8.3045   -8.3551 C   0  0  0  0  0  0  0  0  0  0  0  0
  -28.4932   -7.3103   -7.5053 C   0  0  0  0  0  0  0  0  0  0  0  0
  -29.2125   -6.8255   -6.4072 C   0  0  0  0  0  0  0  0  0  0  0  0
  -30.4709   -7.3740   -6.1573 C   0  0  0  0  0  0  0  0  0  0  0  0
  -31.0035   -8.3614   -6.9868 C   0  0  0  0  0  0  0  0  0  0  0  0
  -30.2780   -8.8501   -8.0821 C   0  0  0  0  0  0  0  0  0  0  0  0
  -30.8850   -9.9613   -8.8947 C   0  0  0  0  0  0  0  0  0  0  0  0
  -27.1369   -9.5211   -9.4573 C   0  0  0  0  0  0  0  0  0  0  0  0
  -26.5808  -10.0033   -8.4790 O   0  0  0  0  0  0  0  0  0  0  0  0
  -28.2727   -8.7580   -9.4752 N   0  0  0  0  0  0  0  0  0  0  0  0
  -28.6207   -8.5541  -10.3999 H   0  0  0  0  0  0  0  0  0  0  0  0
  -27.7603   -9.9810  -11.6423 C   0  0  0  0  0  0  0  0  0  0  0  0
  -26.6927   -9.7127  -10.7281 O   0  0  0  0  0  0  0  0  0  0  0  0
 28 29  1  0  0  0
 29 24  1  0  0  0
 24 25  2  0  0  0
 24 26  1  0  0  0
 26 17  1  0  0  0
 26 27  1  0  0  0
 17 18  1  0  0  0
 17 22  2  0  0  0
 18 19  2  0  0  0
 19  1  1  0  0  0
 19 20  1  0  0  0
  1  3  1  0  0  0
  1  2  1  0  0  0
  3  4  1  0  0  0
  3 12  2  0  0  0
  4  5  2  0  0  0
  5  6  1  0  0  0
  6  7  2  0  0  0
  7  8  1  0  0  0
  7 12  1  0  0  0
  8  9  2  0  0  0
  9 13  1  0  0  0
  9 10  1  0  0  0
 13 14  1  0  0  0
 10 15  1  0  0  0
 10 11  2  0  0  0
 15 16  1  0  0  0
 11 12  1  0  0  0
 20 21  2  0  0  0
 21 22  1  0  0  0
 22 23  1  0  0  0
M  END
> <minimizedAffinity>
-7.88273

$$$$
