CHEMBL4238294


 45 49  0  0  0  0  0  0  0  0999 V2000
  -23.4958    0.2954  -14.1826 N   0  0  0  0  0  0  0  0  0  0  0  0
  -24.1018    0.0379  -12.9655 C   0  0  0  0  0  0  0  0  0  0  0  0
  -23.7009    0.4616  -11.8862 O   0  0  0  0  0  0  0  0  0  0  0  0
  -25.2109   -0.7889  -13.0985 N   0  0  0  0  0  0  0  0  0  0  0  0
  -24.0970    0.2826  -14.9928 H   0  0  0  0  0  0  0  0  0  0  0  0
  -25.1221   -1.4835  -13.8264 H   0  0  0  0  0  0  0  0  0  0  0  0
  -19.6502    2.0648  -14.5329 C   0  0  0  0  0  0  0  0  0  0  0  0
  -20.7552    2.8148  -14.1263 C   0  0  0  0  0  0  0  0  0  0  0  0
  -22.0153    2.2399  -13.9970 C   0  0  0  0  0  0  0  0  0  0  0  0
  -22.2254    0.9019  -14.3131 C   0  0  0  0  0  0  0  0  0  0  0  0
  -21.1362    0.1404  -14.7476 C   0  0  0  0  0  0  0  0  0  0  0  0
  -19.8452    0.7104  -14.8744 C   0  0  0  0  0  0  0  0  0  0  0  0
  -18.7249   -0.1596  -15.3760 C   0  0  0  0  0  0  0  0  0  0  0  0
  -17.7791    3.1093  -15.7880 C   0  0  0  0  0  0  0  0  0  0  0  0
  -18.3642    3.2193  -16.8660 O   0  0  0  0  0  0  0  0  0  0  0  0
  -18.3646    2.6617  -14.6171 N   0  0  0  0  0  0  0  0  0  0  0  0
  -17.8994    2.8532  -13.7450 H   0  0  0  0  0  0  0  0  0  0  0  0
  -16.0307    4.6969  -16.2277 C   0  0  0  0  0  0  0  0  0  0  0  0
  -16.3283    3.4834  -15.7255 C   0  0  0  0  0  0  0  0  0  0  0  0
  -15.2590    2.5513  -15.2265 C   0  0  0  0  0  0  0  0  0  0  0  0
  -15.4384    1.1492  -15.6438 N   0  0  0  0  0  0  0  0  0  0  0  0
  -14.8044    0.1861  -14.7027 C   0  0  0  0  0  0  0  0  0  0  0  0
  -13.2642    0.2284  -14.7083 C   0  0  0  0  0  0  0  0  0  0  0  0
  -12.7348    0.0309  -16.0262 O   0  0  0  0  0  0  0  0  0  0  0  0
  -13.2854    0.9683  -16.9588 C   0  0  0  0  0  0  0  0  0  0  0  0
  -14.8236    0.9062  -16.9714 C   0  0  0  0  0  0  0  0  0  0  0  0
  -25.9492   -1.1599  -11.9499 C   0  0  0  0  0  0  0  0  0  0  0  0
  -27.3089   -0.8698  -11.8432 C   0  0  0  0  0  0  0  0  0  0  0  0
  -27.9789   -1.0517  -10.6320 C   0  0  0  0  0  0  0  0  0  0  0  0
  -27.3210   -1.5601   -9.5004 C   0  0  0  0  0  0  0  0  0  0  0  0
  -25.9893   -1.9757   -9.6745 C   0  0  0  0  0  0  0  0  0  0  0  0
  -25.3001   -1.7656  -10.8794 C   0  0  0  0  0  0  0  0  0  0  0  0
  -28.0245   -1.6417   -8.2144 C   0  0  0  0  0  0  0  0  0  0  0  0
  -28.3638   -0.5017   -7.4444 C   0  0  0  0  0  0  0  0  0  0  0  0
  -29.0132   -0.5719   -6.1836 C   0  0  0  0  0  0  0  0  0  0  0  0
  -29.2868    0.6988   -5.4247 C   0  0  0  0  0  0  0  0  0  0  0  0
  -29.4166   -1.7117   -5.5609 N   0  0  0  0  0  0  0  0  0  0  0  0
  -29.1072   -2.8369   -6.2552 C   0  0  0  0  0  0  0  0  0  0  0  0
  -29.3689   -4.0874   -5.8701 N   0  0  0  0  0  0  0  0  0  0  0  0
  -28.8314   -4.8924   -6.8564 O   0  0  0  0  0  0  0  0  0  0  0  0
  -28.2336   -4.1315   -7.8190 C   0  0  0  0  0  0  0  0  0  0  0  0
  -27.6002   -4.8281   -8.7840 N   0  0  0  0  0  0  0  0  0  0  0  0
  -28.4245   -2.8005   -7.5210 C   0  0  0  0  0  0  0  0  0  0  0  0
  -27.4771   -5.8248   -8.6244 H   0  0  0  0  0  0  0  0  0  0  0  0
  -26.7899   -4.4069   -9.2323 H   0  0  0  0  0  0  0  0  0  0  0  0
 18 19  2  0  0  0
 19 20  1  0  0  0
 19 14  1  0  0  0
 20 21  1  0  0  0
 21 22  1  0  0  0
 21 26  1  0  0  0
 22 23  1  0  0  0
 23 24  1  0  0  0
 24 25  1  0  0  0
 25 26  1  0  0  0
 14 15  2  0  0  0
 14 16  1  0  0  0
 16  7  1  0  0  0
 16 17  1  0  0  0
  7  8  1  0  0  0
  7 12  2  0  0  0
  8  9  2  0  0  0
  9 10  1  0  0  0
 10  1  1  0  0  0
 10 11  2  0  0  0
  1  2  1  0  0  0
  1  5  1  0  0  0
  2  3  2  0  0  0
  2  4  1  0  0  0
  4 27  1  0  0  0
  4  6  1  0  0  0
 27 28  1  0  0  0
 27 32  2  0  0  0
 28 29  2  0  0  0
 29 30  1  0  0  0
 30 33  1  0  0  0
 30 31  2  0  0  0
 33 34  2  0  0  0
 33 43  1  0  0  0
 34 35  1  0  0  0
 35 36  1  0  0  0
 35 37  2  0  0  0
 37 38  1  0  0  0
 38 39  2  0  0  0
 38 43  1  0  0  0
 39 40  1  0  0  0
 40 41  1  0  0  0
 41 42  1  0  0  0
 41 43  2  0  0  0
 42 44  1  0  0  0
 42 45  1  0  0  0
 31 32  1  0  0  0
 11 12  1  0  0  0
 12 13  1  0  0  0
M  END
> <minimizedAffinity>
-8.78951

$$$$
