CHEMBL3911476


 30 33  0  0  0  0  0  0  0  0999 V2000
  -15.1541   -3.2414   -9.9485 C   0  0  0  0  0  0  0  0  0  0  0  0
  -14.6719   -3.6184  -11.3195 C   0  0  0  0  0  0  0  0  0  0  0  0
  -15.5710   -3.3512  -12.4165 C   0  0  0  0  0  0  0  0  0  0  0  0
  -15.2768   -3.7583  -13.6516 C   0  0  0  0  0  0  0  0  0  0  0  0
  -14.1145   -4.4495  -13.9797 N   0  0  0  0  0  0  0  0  0  0  0  0
  -13.1222   -4.6564  -12.9847 C   0  0  0  0  0  0  0  0  0  0  0  0
  -12.0269   -5.2033  -13.1428 O   0  0  0  0  0  0  0  0  0  0  0  0
  -13.4795   -4.1979  -11.5553 C   0  0  0  0  0  0  0  0  0  0  0  0
  -12.5518   -4.4487  -10.5338 N   0  0  0  0  0  0  0  0  0  0  0  0
  -12.4172   -5.8044   -9.9349 C   0  0  0  0  0  0  0  0  0  0  0  0
  -11.0397   -6.0093   -9.2799 C   0  0  0  0  0  0  0  0  0  0  0  0
  -10.9086   -4.8855   -8.2725 C   0  0  0  0  0  0  0  0  0  0  0  0
  -10.7774   -5.1629   -6.9597 N   0  0  0  0  0  0  0  0  0  0  0  0
  -11.0002   -4.1405   -6.1229 C   0  0  0  0  0  0  0  0  0  0  0  0
  -10.9344   -4.3781   -4.7661 N   0  0  0  0  0  0  0  0  0  0  0  0
  -11.2900   -2.8856   -6.4925 N   0  0  0  0  0  0  0  0  0  0  0  0
  -11.3883   -2.6493   -7.8132 C   0  0  0  0  0  0  0  0  0  0  0  0
  -11.1979   -3.6202   -8.7595 C   0  0  0  0  0  0  0  0  0  0  0  0
  -11.4957   -3.4819  -10.2175 C   0  0  0  0  0  0  0  0  0  0  0  0
  -10.2544   -5.0978   -4.5733 H   0  0  0  0  0  0  0  0  0  0  0  0
  -10.8271   -3.4937   -4.2886 H   0  0  0  0  0  0  0  0  0  0  0  0
  -13.9502   -5.0021  -15.3217 C   0  0  0  0  0  0  0  0  0  0  0  0
  -14.0548   -6.3673  -15.5894 C   0  0  0  0  0  0  0  0  0  0  0  0
  -13.9580   -6.8410  -16.8962 C   0  0  0  0  0  0  0  0  0  0  0  0
  -13.7461   -5.9569  -17.9600 C   0  0  0  0  0  0  0  0  0  0  0  0
  -13.5968   -4.5768  -17.7679 C   0  0  0  0  0  0  0  0  0  0  0  0
  -13.7111   -4.1461  -16.4290 C   0  0  0  0  0  0  0  0  0  0  0  0
  -13.4533   -3.6904  -18.8382 N   0  0  0  0  0  0  0  0  0  0  0  0
  -13.3002   -2.2510  -18.6023 C   0  0  0  0  0  0  0  0  0  0  0  0
  -14.0265   -3.9871  -20.1531 C   0  0  0  0  0  0  0  0  0  0  0  0
  1  2  1  0  0  0
  2  3  1  0  0  0
  2  8  2  0  0  0
  3  4  2  0  0  0
  4  5  1  0  0  0
  5 22  1  0  0  0
  5  6  1  0  0  0
 22 23  1  0  0  0
 22 27  2  0  0  0
 23 24  2  0  0  0
 24 25  1  0  0  0
 25 26  2  0  0  0
 26 28  1  0  0  0
 26 27  1  0  0  0
 28 29  1  0  0  0
 28 30  1  0  0  0
  6  7  2  0  0  0
  6  8  1  0  0  0
  8  9  1  0  0  0
  9 10  1  0  0  0
  9 19  1  0  0  0
 10 11  1  0  0  0
 11 12  1  0  0  0
 12 13  1  0  0  0
 12 18  2  0  0  0
 13 14  2  0  0  0
 14 15  1  0  0  0
 14 16  1  0  0  0
 15 20  1  0  0  0
 15 21  1  0  0  0
 16 17  2  0  0  0
 17 18  1  0  0  0
 18 19  1  0  0  0
M  END
> <minimizedAffinity>
-6.99324

$$$$
