CHEMBL3975397


 39 42  0  0  0  0  0  0  0  0999 V2000
  -16.9460    1.9381  -15.6386 N   0  0  0  0  0  0  0  0  0  0  0  0
  -18.4007    1.9275  -15.5959 C   0  0  0  0  0  0  0  0  0  0  0  0
  -18.9870    3.1887  -15.6974 C   0  0  0  0  0  0  0  0  0  0  0  0
  -20.2490    3.4284  -15.1708 C   0  0  0  0  0  0  0  0  0  0  0  0
  -21.0094    2.4306  -14.6271 C   0  0  0  0  0  0  0  0  0  0  0  0
  -22.1311    2.8437  -14.0204 N   0  0  0  0  0  0  0  0  0  0  0  0
  -22.9651    1.8968  -13.5707 C   0  0  0  0  0  0  0  0  0  0  0  0
  -22.7377    0.5545  -13.7824 C   0  0  0  0  0  0  0  0  0  0  0  0
  -21.5479    0.1191  -14.3363 N   0  0  0  0  0  0  0  0  0  0  0  0
  -20.6134    1.0672  -14.7226 C   0  0  0  0  0  0  0  0  0  0  0  0
  -19.2524    0.8541  -15.1899 C   0  0  0  0  0  0  0  0  0  0  0  0
  -23.8517   -0.3476  -13.4893 C   0  0  0  0  0  0  0  0  0  0  0  0
  -24.6709   -1.0963  -14.3755 C   0  0  0  0  0  0  0  0  0  0  0  0
  -25.7292   -1.6502  -13.7684 N   0  0  0  0  0  0  0  0  0  0  0  0
  -25.5895   -1.2615  -12.4905 N   0  0  0  0  0  0  0  0  0  0  0  0
  -26.3310   -1.9218  -11.4412 C   0  0  0  0  0  0  0  0  0  0  0  0
  -24.5952   -0.3351  -12.3196 C   0  0  0  0  0  0  0  0  0  0  0  0
  -13.7590    0.0446  -15.0883 C   0  0  0  0  0  0  0  0  0  0  0  0
  -13.9934   -0.5440  -13.8458 C   0  0  0  0  0  0  0  0  0  0  0  0
  -15.2455   -0.4038  -13.2495 C   0  0  0  0  0  0  0  0  0  0  0  0
  -16.2579    0.3268  -13.8914 C   0  0  0  0  0  0  0  0  0  0  0  0
  -16.0547    0.9616  -15.1203 C   0  0  0  0  0  0  0  0  0  0  0  0
  -14.7995    0.7592  -15.7367 C   0  0  0  0  0  0  0  0  0  0  0  0
  -11.3592    0.2679  -15.0081 C   0  0  0  0  0  0  0  0  0  0  0  0
  -12.5580    0.0276  -15.7494 O   0  0  0  0  0  0  0  0  0  0  0  0
  -15.5849   -0.8427  -11.9973 O   0  0  0  0  0  0  0  0  0  0  0  0
  -15.6068   -2.2496  -11.7973 C   0  0  0  0  0  0  0  0  0  0  0  0
  -16.5288    3.3864  -15.4535 C   0  0  0  0  0  0  0  0  0  0  0  0
  -15.2391    3.9343  -16.1395 C   0  0  0  0  0  0  0  0  0  0  0  0
  -14.4693    4.8080  -15.3075 O   0  0  0  0  0  0  0  0  0  0  0  0
  -15.0864    5.3021  -14.7400 H   0  0  0  0  0  0  0  0  0  0  0  0
  -15.3801    4.5226  -17.5570 C   0  0  0  0  0  0  0  0  0  0  0  0
  -14.6920    5.8132  -17.7813 N   0  0  0  0  0  0  0  0  0  0  0  0
  -13.6919    5.6749  -17.6156 H   0  0  0  0  0  0  0  0  0  0  0  0
  -14.8738    6.4099  -19.1301 C   0  0  0  0  0  0  0  0  0  0  0  0
  -14.8900    7.9437  -19.3601 C   0  0  0  0  0  0  0  0  0  0  0  0
  -15.2721    8.2968  -20.6050 F   0  0  0  0  0  0  0  0  0  0  0  0
  -15.7275    8.5554  -18.4920 F   0  0  0  0  0  0  0  0  0  0  0  0
  -13.6520    8.4595  -19.1576 F   0  0  0  0  0  0  0  0  0  0  0  0
 24 25  1  0  0  0
 25 18  1  0  0  0
 18 19  1  0  0  0
 18 23  2  0  0  0
 19 20  2  0  0  0
 20 26  1  0  0  0
 20 21  1  0  0  0
 26 27  1  0  0  0
 21 22  2  0  0  0
 22  1  1  0  0  0
 22 23  1  0  0  0
  1 28  1  0  0  0
  1  2  1  0  0  0
 29 32  1  0  0  0
 29 30  1  0  0  0
 29 28  1  0  0  0
 30 31  1  0  0  0
 32 33  1  0  0  0
 33 35  1  0  0  0
 33 34  1  0  0  0
 35 36  1  0  0  0
 36 37  1  0  0  0
 36 38  1  0  0  0
 36 39  1  0  0  0
  2  3  1  0  0  0
  2 11  2  0  0  0
  3  4  2  0  0  0
  4  5  1  0  0  0
  5  6  1  0  0  0
  5 10  2  0  0  0
  6  7  2  0  0  0
  7  8  1  0  0  0
  8 12  1  0  0  0
  8  9  2  0  0  0
 12 13  1  0  0  0
 12 17  2  0  0  0
 13 14  2  0  0  0
 14 15  1  0  0  0
 15 16  1  0  0  0
 15 17  1  0  0  0
  9 10  1  0  0  0
 10 11  1  0  0  0
M  END
> <minimizedAffinity>
-8.83097

$$$$
