CHEMBL1988163


 29 32  0  0  0  0  0  0  0  0999 V2000
  -29.9423   -6.0305   -6.2947 C   0  0  0  0  0  0  0  0  0  0  0  0
  -30.8410   -6.8247   -5.6838 N   0  0  0  0  0  0  0  0  0  0  0  0
  -31.4845   -6.3628   -4.5847 C   0  0  0  0  0  0  0  0  0  0  0  0
  -31.2311   -5.0765   -4.1203 C   0  0  0  0  0  0  0  0  0  0  0  0
  -31.6717   -4.2707   -3.0462 C   0  0  0  0  0  0  0  0  0  0  0  0
  -31.0024   -3.0683   -3.1334 C   0  0  0  0  0  0  0  0  0  0  0  0
  -30.1799   -3.0816   -4.2517 N   0  0  0  0  0  0  0  0  0  0  0  0
  -30.3130   -4.3335   -4.8459 C   0  0  0  0  0  0  0  0  0  0  0  0
  -29.6393   -4.7834   -5.9167 N   0  0  0  0  0  0  0  0  0  0  0  0
  -29.3566   -1.9974   -4.6888 C   0  0  0  0  0  0  0  0  0  0  0  0
  -29.9372   -0.8484   -5.2461 C   0  0  0  0  0  0  0  0  0  0  0  0
  -29.1321    0.2199   -5.6547 C   0  0  0  0  0  0  0  0  0  0  0  0
  -27.7464    0.1426   -5.5332 C   0  0  0  0  0  0  0  0  0  0  0  0
  -27.1614   -1.0011   -4.9972 C   0  0  0  0  0  0  0  0  0  0  0  0
  -27.9610   -2.0642   -4.5700 C   0  0  0  0  0  0  0  0  0  0  0  0
  -29.3172   -6.5526   -7.4326 N   0  0  0  0  0  0  0  0  0  0  0  0
  -29.7935   -6.2129   -8.2570 H   0  0  0  0  0  0  0  0  0  0  0  0
  -28.0662   -9.6842   -8.9688 C   0  0  0  0  0  0  0  0  0  0  0  0
  -27.5272  -10.3546   -7.8701 C   0  0  0  0  0  0  0  0  0  0  0  0
  -27.6116   -9.7744   -6.6099 C   0  0  0  0  0  0  0  0  0  0  0  0
  -28.2110   -8.5216   -6.4599 C   0  0  0  0  0  0  0  0  0  0  0  0
  -28.7383   -7.8282   -7.5611 C   0  0  0  0  0  0  0  0  0  0  0  0
  -28.6951   -8.4405   -8.8188 C   0  0  0  0  0  0  0  0  0  0  0  0
  -29.3051   -9.8261  -11.3518 N   0  0  0  0  0  0  0  0  0  0  0  0
  -27.9343  -10.4076  -10.5754 S   0  0  0  0  0  0  0  0  0  0  0  0
  -28.1105  -11.8337  -10.4577 O   0  0  0  0  0  0  0  0  0  0  0  0
  -26.8212   -9.8175  -11.2829 O   0  0  0  0  0  0  0  0  0  0  0  0
  -29.8680  -10.6095  -11.6867 H   0  0  0  0  0  0  0  0  0  0  0  0
  -29.0350   -9.1723  -12.0899 H   0  0  0  0  0  0  0  0  0  0  0  0
 24 25  1  0  0  0
 24 28  1  0  0  0
 24 29  1  0  0  0
 25 26  2  0  0  0
 25 27  2  0  0  0
 25 18  1  0  0  0
 18 19  1  0  0  0
 18 23  2  0  0  0
 19 20  2  0  0  0
 20 21  1  0  0  0
 21 22  2  0  0  0
 22 16  1  0  0  0
 22 23  1  0  0  0
 16  1  1  0  0  0
 16 17  1  0  0  0
  1  2  1  0  0  0
  1  9  2  0  0  0
  2  3  2  0  0  0
  3  4  1  0  0  0
  4  5  1  0  0  0
  4  8  2  0  0  0
  5  6  2  0  0  0
  6  7  1  0  0  0
  7 10  1  0  0  0
  7  8  1  0  0  0
 10 11  1  0  0  0
 10 15  2  0  0  0
 11 12  2  0  0  0
 12 13  1  0  0  0
 13 14  2  0  0  0
 14 15  1  0  0  0
  8  9  1  0  0  0
M  END
> <minimizedAffinity>
-8.90845

$$$$
