CHEMBL4169073


 30 34  0  0  0  0  0  0  0  0999 V2000
  -25.3668   10.4480  -16.1521 C   0  0  0  0  0  0  0  0  0  0  0  0
  -26.5946   10.0779  -16.4510 N   0  0  0  0  0  0  0  0  0  0  0  0
  -27.4305   10.8169  -15.6629 C   0  0  0  0  0  0  0  0  0  0  0  0
  -28.8334   10.8404  -15.6315 C   0  0  0  0  0  0  0  0  0  0  0  0
  -29.4694   11.7132  -14.7429 C   0  0  0  0  0  0  0  0  0  0  0  0
  -28.7137   12.4896  -13.8555 C   0  0  0  0  0  0  0  0  0  0  0  0
  -27.3148   12.4874  -13.8849 C   0  0  0  0  0  0  0  0  0  0  0  0
  -26.7029   11.6407  -14.8121 C   0  0  0  0  0  0  0  0  0  0  0  0
  -25.3903   11.3947  -15.1476 N   0  0  0  0  0  0  0  0  0  0  0  0
  -24.2455   12.0876  -14.6099 C   0  0  0  0  0  0  0  0  0  0  0  0
  -24.2003   10.0229  -16.6976 N   0  0  0  0  0  0  0  0  0  0  0  0
  -23.7110    9.2254  -16.3128 H   0  0  0  0  0  0  0  0  0  0  0  0
  -21.0040   12.6574  -20.6762 C   0  0  0  0  0  0  0  0  0  0  0  0
  -21.8444   11.9834  -19.6353 C   0  0  0  0  0  0  0  0  0  0  0  0
  -23.2294   11.9255  -19.7766 C   0  0  0  0  0  0  0  0  0  0  0  0
  -24.0133   11.2894  -18.8114 C   0  0  0  0  0  0  0  0  0  0  0  0
  -23.4418   10.7086  -17.6725 C   0  0  0  0  0  0  0  0  0  0  0  0
  -22.0467   10.7665  -17.5420 C   0  0  0  0  0  0  0  0  0  0  0  0
  -21.2559   11.4020  -18.5070 C   0  0  0  0  0  0  0  0  0  0  0  0
  -30.8493   11.6985  -14.7633 O   0  0  0  0  0  0  0  0  0  0  0  0
  -31.5175   11.3847  -13.5873 C   0  0  0  0  0  0  0  0  0  0  0  0
  -30.9788   11.7075  -12.3836 N   0  0  0  0  0  0  0  0  0  0  0  0
  -31.6352   11.3246  -11.2733 C   0  0  0  0  0  0  0  0  0  0  0  0
  -32.8003   10.6596  -11.1911 N   0  0  0  0  0  0  0  0  0  0  0  0
  -33.3136   10.4136  -12.4095 C   0  0  0  0  0  0  0  0  0  0  0  0
  -32.7527   10.7480  -13.6283 C   0  0  0  0  0  0  0  0  0  0  0  0
  -33.6741   10.2809  -14.5843 C   0  0  0  0  0  0  0  0  0  0  0  0
  -34.7359    9.6813  -14.0300 N   0  0  0  0  0  0  0  0  0  0  0  0
  -34.4840    9.7689  -12.7029 N   0  0  0  0  0  0  0  0  0  0  0  0
  -35.3926    9.1929  -11.7433 C   0  0  0  0  0  0  0  0  0  0  0  0
 13 14  1  0  0  0
 14 15  1  0  0  0
 14 19  2  0  0  0
 15 16  2  0  0  0
 16 17  1  0  0  0
 17 11  1  0  0  0
 17 18  2  0  0  0
 11  1  1  0  0  0
 11 12  1  0  0  0
  1  2  2  0  0  0
  1  9  1  0  0  0
  2  3  1  0  0  0
  3  4  1  0  0  0
  3  8  2  0  0  0
  4  5  2  0  0  0
  5 20  1  0  0  0
  5  6  1  0  0  0
 20 21  1  0  0  0
 21 22  1  0  0  0
 21 26  2  0  0  0
 22 23  2  0  0  0
 23 24  1  0  0  0
 24 25  2  0  0  0
 25 26  1  0  0  0
 25 29  1  0  0  0
 26 27  1  0  0  0
 27 28  2  0  0  0
 28 29  1  0  0  0
 29 30  1  0  0  0
  6  7  2  0  0  0
  7  8  1  0  0  0
  8  9  1  0  0  0
  9 10  1  0  0  0
 18 19  1  0  0  0
M  END
> <minimizedAffinity>
-7.08695

$$$$
