CHEMBL3986769


 43 47  0  0  0  0  0  0  0  0999 V2000
  -13.2051   -6.5889  -15.2925 N   0  0  0  0  0  0  0  0  0  0  0  0
  -13.5876   -5.2768  -15.0685 C   0  0  0  0  0  0  0  0  0  0  0  0
  -14.0950   -4.5456  -15.9146 O   0  0  0  0  0  0  0  0  0  0  0  0
  -13.3424   -4.8300  -13.7828 N   0  0  0  0  0  0  0  0  0  0  0  0
  -12.7267   -7.0741  -14.5471 H   0  0  0  0  0  0  0  0  0  0  0  0
  -12.4374   -5.0627  -13.4008 H   0  0  0  0  0  0  0  0  0  0  0  0
  -13.7487   -7.2343  -18.9712 C   0  0  0  0  0  0  0  0  0  0  0  0
  -13.6374   -6.5993  -17.7246 C   0  0  0  0  0  0  0  0  0  0  0  0
  -13.3770   -7.2768  -16.5260 C   0  0  0  0  0  0  0  0  0  0  0  0
  -13.3022   -8.6706  -16.5663 C   0  0  0  0  0  0  0  0  0  0  0  0
  -13.4485   -9.3546  -17.7918 C   0  0  0  0  0  0  0  0  0  0  0  0
  -13.6552   -8.6254  -18.9807 C   0  0  0  0  0  0  0  0  0  0  0  0
  -11.6732   -2.8672  -19.4975 C   0  0  0  0  0  0  0  0  0  0  0  0
  -12.6221   -3.7694  -20.1582 N   0  0  0  0  0  0  0  0  0  0  0  0
  -11.9367   -5.0056  -20.5525 C   0  0  0  0  0  0  0  0  0  0  0  0
  -12.8866   -6.0570  -21.1320 C   0  0  0  0  0  0  0  0  0  0  0  0
  -14.0598   -6.3697  -20.1937 C   0  0  0  0  0  0  0  0  0  0  0  0
  -14.7463   -5.0292  -19.8553 C   0  0  0  0  0  0  0  0  0  0  0  0
  -13.7668   -4.0140  -19.2699 C   0  0  0  0  0  0  0  0  0  0  0  0
  -13.4115  -10.8621  -17.8786 C   0  0  0  0  0  0  0  0  0  0  0  0
  -13.1081  -11.3345  -19.1187 F   0  0  0  0  0  0  0  0  0  0  0  0
  -12.4864  -11.4033  -17.0365 F   0  0  0  0  0  0  0  0  0  0  0  0
  -14.6000  -11.4343  -17.5383 F   0  0  0  0  0  0  0  0  0  0  0  0
  -13.7495   -3.5237  -13.4362 C   0  0  0  0  0  0  0  0  0  0  0  0
  -14.9680   -3.3023  -12.7947 C   0  0  0  0  0  0  0  0  0  0  0  0
  -15.4259   -1.9981  -12.6218 C   0  0  0  0  0  0  0  0  0  0  0  0
  -14.6286   -0.9364  -13.0333 C   0  0  0  0  0  0  0  0  0  0  0  0
  -13.4150   -1.2525  -13.6382 C   0  0  0  0  0  0  0  0  0  0  0  0
  -12.9387   -2.5177  -13.8185 N   0  0  0  0  0  0  0  0  0  0  0  0
  -14.9866    0.3899  -12.9375 O   0  0  0  0  0  0  0  0  0  0  0  0
  -15.7756    0.9528  -13.9230 C   0  0  0  0  0  0  0  0  0  0  0  0
  -15.2604    1.6783  -14.9913 C   0  0  0  0  0  0  0  0  0  0  0  0
  -16.1495    2.2246  -15.8880 C   0  0  0  0  0  0  0  0  0  0  0  0
  -17.4778    2.0466  -15.8101 N   0  0  0  0  0  0  0  0  0  0  0  0
  -17.9829    1.2895  -14.8211 C   0  0  0  0  0  0  0  0  0  0  0  0
  -17.1585    0.7199  -13.8514 C   0  0  0  0  0  0  0  0  0  0  0  0
  -19.3704    1.0728  -14.7711 N   0  0  0  0  0  0  0  0  0  0  0  0
  -20.2790    2.0343  -14.3692 C   0  0  0  0  0  0  0  0  0  0  0  0
  -20.0361    3.1747  -13.9972 O   0  0  0  0  0  0  0  0  0  0  0  0
  -19.7164    0.1627  -15.0431 H   0  0  0  0  0  0  0  0  0  0  0  0
  -21.7099    1.5910  -14.3889 C   0  0  0  0  0  0  0  0  0  0  0  0
  -22.2568    0.8134  -13.2022 C   0  0  0  0  0  0  0  0  0  0  0  0
  -22.0209    0.1077  -14.5049 C   0  0  0  0  0  0  0  0  0  0  0  0
 13 14  1  0  0  0
 14 15  1  0  0  0
 14 19  1  0  0  0
 15 16  1  0  0  0
 16 17  1  0  0  0
 17  7  1  0  0  0
 17 18  1  0  0  0
  7  8  1  0  0  0
  7 12  2  0  0  0
  8  9  2  0  0  0
  9  1  1  0  0  0
  9 10  1  0  0  0
  1  2  1  0  0  0
  1  5  1  0  0  0
  2  3  2  0  0  0
  2  4  1  0  0  0
  4 24  1  0  0  0
  4  6  1  0  0  0
 24 25  1  0  0  0
 24 29  2  0  0  0
 25 26  2  0  0  0
 26 27  1  0  0  0
 27 30  1  0  0  0
 27 28  2  0  0  0
 30 31  1  0  0  0
 31 32  1  0  0  0
 31 36  2  0  0  0
 32 33  2  0  0  0
 33 34  1  0  0  0
 34 35  2  0  0  0
 35 37  1  0  0  0
 35 36  1  0  0  0
 37 38  1  0  0  0
 37 40  1  0  0  0
 38 39  2  0  0  0
 38 41  1  0  0  0
 41 42  1  0  0  0
 41 43  1  0  0  0
 42 43  1  0  0  0
 28 29  1  0  0  0
 10 11  2  0  0  0
 11 20  1  0  0  0
 11 12  1  0  0  0
 20 21  1  0  0  0
 20 22  1  0  0  0
 20 23  1  0  0  0
 18 19  1  0  0  0
M  END
> <minimizedAffinity>
-8.59216

$$$$
