CHEMBL3917670


 32 35  0  0  0  0  0  0  0  0999 V2000
  -18.3796    1.3594  -15.0999 C   0  0  0  0  0  0  0  0  0  0  0  0
  -17.9028    2.5719  -15.4796 N   0  0  0  0  0  0  0  0  0  0  0  0
  -18.7299    3.6378  -15.4511 C   0  0  0  0  0  0  0  0  0  0  0  0
  -20.0136    3.6821  -15.0613 N   0  0  0  0  0  0  0  0  0  0  0  0
  -20.4420    2.4709  -14.6821 C   0  0  0  0  0  0  0  0  0  0  0  0
  -21.7082    2.2020  -14.2473 N   0  0  0  0  0  0  0  0  0  0  0  0
  -21.8574    0.8561  -13.9830 C   0  0  0  0  0  0  0  0  0  0  0  0
  -20.6134    0.2809  -14.2189 C   0  0  0  0  0  0  0  0  0  0  0  0
  -19.7167    1.2929  -14.6671 C   0  0  0  0  0  0  0  0  0  0  0  0
  -22.4213    2.9089  -14.1557 H   0  0  0  0  0  0  0  0  0  0  0  0
  -23.1248    0.2558  -13.5568 C   0  0  0  0  0  0  0  0  0  0  0  0
  -23.8062   -0.6640  -14.3701 C   0  0  0  0  0  0  0  0  0  0  0  0
  -24.9937   -1.2693  -13.9369 C   0  0  0  0  0  0  0  0  0  0  0  0
  -25.5164   -0.9587  -12.6774 C   0  0  0  0  0  0  0  0  0  0  0  0
  -24.8447   -0.0446  -11.8599 C   0  0  0  0  0  0  0  0  0  0  0  0
  -23.6628    0.5607  -12.2998 C   0  0  0  0  0  0  0  0  0  0  0  0
  -26.7375   -1.6171  -12.1456 C   0  0  0  0  0  0  0  0  0  0  0  0
  -27.5229   -2.1980  -12.8906 O   0  0  0  0  0  0  0  0  0  0  0  0
  -26.9252   -1.5724  -10.7829 N   0  0  0  0  0  0  0  0  0  0  0  0
  -28.0260   -2.3212  -10.3022 O   0  0  0  0  0  0  0  0  0  0  0  0
  -26.1845   -1.3826  -10.1177 H   0  0  0  0  0  0  0  0  0  0  0  0
  -28.4395   -2.6393  -11.1360 H   0  0  0  0  0  0  0  0  0  0  0  0
  -17.5613    0.2139  -15.1494 N   0  0  0  0  0  0  0  0  0  0  0  0
  -18.1197   -0.5396  -14.7510 H   0  0  0  0  0  0  0  0  0  0  0  0
  -15.1105    0.5461  -15.3030 C   0  0  0  0  0  0  0  0  0  0  0  0
  -16.3118    0.3268  -14.3736 C   0  0  0  0  0  0  0  0  0  0  0  0
  -16.0680   -0.9307  -13.5344 C   0  0  0  0  0  0  0  0  0  0  0  0
  -16.1540   -2.1903  -14.1558 C   0  0  0  0  0  0  0  0  0  0  0  0
  -16.0207   -3.3709  -13.4208 C   0  0  0  0  0  0  0  0  0  0  0  0
  -15.7928   -3.3141  -12.0487 C   0  0  0  0  0  0  0  0  0  0  0  0
  -15.6968   -2.0777  -11.4143 C   0  0  0  0  0  0  0  0  0  0  0  0
  -15.8415   -0.8971  -12.1463 C   0  0  0  0  0  0  0  0  0  0  0  0
 25 26  1  0  0  0
 26 23  1  0  0  0
 26 27  1  0  0  0
 23  1  1  0  0  0
 23 24  1  0  0  0
  1  2  1  0  0  0
  1  9  2  0  0  0
  2  3  2  0  0  0
  3  4  1  0  0  0
  4  5  2  0  0  0
  5  6  1  0  0  0
  5  9  1  0  0  0
  6  7  1  0  0  0
  6 10  1  0  0  0
  7 11  1  0  0  0
  7  8  2  0  0  0
 11 12  1  0  0  0
 11 16  2  0  0  0
 12 13  2  0  0  0
 13 14  1  0  0  0
 14 17  1  0  0  0
 14 15  2  0  0  0
 17 18  2  0  0  0
 17 19  1  0  0  0
 19 20  1  0  0  0
 19 21  1  0  0  0
 20 22  1  0  0  0
 15 16  1  0  0  0
  8  9  1  0  0  0
 27 28  1  0  0  0
 27 32  2  0  0  0
 28 29  2  0  0  0
 29 30  1  0  0  0
 30 31  2  0  0  0
 31 32  1  0  0  0
M  END
> <minimizedAffinity>
-10.04795

$$$$
