CHEMBL3758585


 42 46  0  0  0  0  0  0  0  0999 V2000
  -14.1375    3.4364  -15.6626 C   0  0  0  0  0  0  0  0  0  0  0  0
  -14.5892    2.2657  -15.0601 C   0  0  0  0  0  0  0  0  0  0  0  0
  -15.9395    1.9125  -15.0970 C   0  0  0  0  0  0  0  0  0  0  0  0
  -16.4748    0.8835  -14.3075 C   0  0  0  0  0  0  0  0  0  0  0  0
  -17.7937    0.6308  -14.2939 N   0  0  0  0  0  0  0  0  0  0  0  0
  -18.5579    1.3877  -15.0822 C   0  0  0  0  0  0  0  0  0  0  0  0
  -18.1450    2.3895  -15.8768 N   0  0  0  0  0  0  0  0  0  0  0  0
  -16.8377    2.6687  -15.8679 C   0  0  0  0  0  0  0  0  0  0  0  0
  -16.3239    3.7410  -16.6109 C   0  0  0  0  0  0  0  0  0  0  0  0
  -14.9755    4.1303  -16.5437 C   0  0  0  0  0  0  0  0  0  0  0  0
  -12.1878    3.1455  -14.3756 C   0  0  0  0  0  0  0  0  0  0  0  0
  -12.9015    3.9293  -15.3353 O   0  0  0  0  0  0  0  0  0  0  0  0
  -15.6053    0.1288  -13.4718 N   0  0  0  0  0  0  0  0  0  0  0  0
  -14.8728    0.7368  -13.1199 H   0  0  0  0  0  0  0  0  0  0  0  0
  -15.1484   -1.1818  -13.7166 C   0  0  0  0  0  0  0  0  0  0  0  0
  -13.8492   -1.3972  -14.1770 C   0  0  0  0  0  0  0  0  0  0  0  0
  -13.4136   -2.6873  -14.5077 C   0  0  0  0  0  0  0  0  0  0  0  0
  -14.2508   -3.7949  -14.3573 C   0  0  0  0  0  0  0  0  0  0  0  0
  -15.5075   -3.5950  -13.7801 C   0  0  0  0  0  0  0  0  0  0  0  0
  -15.9446   -2.3020  -13.4577 C   0  0  0  0  0  0  0  0  0  0  0  0
  -13.9117   -5.1079  -14.7868 N   0  0  0  0  0  0  0  0  0  0  0  0
  -13.8335   -5.5300  -16.0963 C   0  0  0  0  0  0  0  0  0  0  0  0
  -13.9493   -4.8195  -17.0941 O   0  0  0  0  0  0  0  0  0  0  0  0
  -13.7530   -5.7814  -14.0515 H   0  0  0  0  0  0  0  0  0  0  0  0
  -13.5761   -6.9838  -16.3452 C   0  0  0  0  0  0  0  0  0  0  0  0
  -13.3042   -7.9207  -15.3415 C   0  0  0  0  0  0  0  0  0  0  0  0
  -13.1685   -9.2788  -15.6715 C   0  0  0  0  0  0  0  0  0  0  0  0
  -13.3076   -9.7135  -16.9981 C   0  0  0  0  0  0  0  0  0  0  0  0
  -13.2138  -11.1644  -17.3705 C   0  0  0  0  0  0  0  0  0  0  0  0
  -13.5729   -8.7733  -17.9954 C   0  0  0  0  0  0  0  0  0  0  0  0
  -13.7060   -7.4264  -17.6724 C   0  0  0  0  0  0  0  0  0  0  0  0
  -14.6125    5.2119  -17.3284 O   0  0  0  0  0  0  0  0  0  0  0  0
  -13.6548    4.8850  -18.3521 C   0  0  0  0  0  0  0  0  0  0  0  0
  -14.0628    3.6855  -19.2095 C   0  0  0  0  0  0  0  0  0  0  0  0
  -12.8252    2.8324  -19.5802 C   0  0  0  0  0  0  0  0  0  0  0  0
  -12.6475    1.6094  -18.7787 N   0  0  0  0  0  0  0  0  0  0  0  0
  -13.9219    0.9412  -18.4613 C   0  0  0  0  0  0  0  0  0  0  0  0
  -13.6885   -0.3103  -17.5849 C   0  0  0  0  0  0  0  0  0  0  0  0
  -12.8166   -1.3326  -18.1926 N   0  0  0  0  0  0  0  0  0  0  0  0
  -13.4997   -2.0568  -19.2605 C   0  0  0  0  0  0  0  0  0  0  0  0
  -11.5737   -0.6879  -18.6640 C   0  0  0  0  0  0  0  0  0  0  0  0
  -11.7540    0.6400  -19.4540 C   0  0  0  0  0  0  0  0  0  0  0  0
 11 12  1  0  0  0
 12  1  1  0  0  0
  1  2  1  0  0  0
  1 10  2  0  0  0
  2  3  2  0  0  0
  3  4  1  0  0  0
  3  8  1  0  0  0
  4 13  1  0  0  0
  4  5  2  0  0  0
 13 15  1  0  0  0
 13 14  1  0  0  0
 15 16  1  0  0  0
 15 20  2  0  0  0
 16 17  2  0  0  0
 17 18  1  0  0  0
 18 21  1  0  0  0
 18 19  2  0  0  0
 21 22  1  0  0  0
 21 24  1  0  0  0
 22 23  2  0  0  0
 22 25  1  0  0  0
 25 26  1  0  0  0
 25 31  2  0  0  0
 26 27  2  0  0  0
 27 28  1  0  0  0
 28 29  1  0  0  0
 28 30  2  0  0  0
 30 31  1  0  0  0
 19 20  1  0  0  0
  5  6  1  0  0  0
  6  7  2  0  0  0
  7  8  1  0  0  0
  8  9  2  0  0  0
  9 10  1  0  0  0
 10 32  1  0  0  0
 32 33  1  0  0  0
 33 34  1  0  0  0
 34 35  1  0  0  0
 35 36  1  0  0  0
 36 37  1  0  0  0
 36 42  1  0  0  0
 37 38  1  0  0  0
 38 39  1  0  0  0
 39 40  1  0  0  0
 39 41  1  0  0  0
 41 42  1  0  0  0
M  END
> <minimizedAffinity>
-6.48800

$$$$
