CHEMBL526836


 33 37  0  0  0  0  0  0  0  0999 V2000
  -14.2636   -4.6673  -12.4478 C   0  0  0  0  0  0  0  0  0  0  0  0
  -15.4455   -4.1756  -11.8594 C   0  0  0  0  0  0  0  0  0  0  0  0
  -15.8575   -2.8421  -11.9604 C   0  0  0  0  0  0  0  0  0  0  0  0
  -15.0296   -2.0046  -12.6961 C   0  0  0  0  0  0  0  0  0  0  0  0
  -15.0962   -0.6700  -12.9849 N   0  0  0  0  0  0  0  0  0  0  0  0
  -14.0340   -0.3413  -13.7956 C   0  0  0  0  0  0  0  0  0  0  0  0
  -13.2787   -1.4073  -14.0164 N   0  0  0  0  0  0  0  0  0  0  0  0
  -13.8706   -2.4360  -13.3231 C   0  0  0  0  0  0  0  0  0  0  0  0
  -13.4753   -3.7769  -13.1941 C   0  0  0  0  0  0  0  0  0  0  0  0
  -15.7877   -0.0152  -12.6402 H   0  0  0  0  0  0  0  0  0  0  0  0
  -13.9150    0.9935  -14.2880 C   0  0  0  0  0  0  0  0  0  0  0  0
  -14.3552    1.2901  -15.5367 C   0  0  0  0  0  0  0  0  0  0  0  0
  -14.9744    0.3792  -16.3976 N   0  0  0  0  0  0  0  0  0  0  0  0
  -14.1956    2.6797  -16.0450 C   0  0  0  0  0  0  0  0  0  0  0  0
  -14.6951    3.1002  -17.2903 C   0  0  0  0  0  0  0  0  0  0  0  0
  -14.5126    4.4143  -17.7388 C   0  0  0  0  0  0  0  0  0  0  0  0
  -13.8318    5.3338  -16.9460 C   0  0  0  0  0  0  0  0  0  0  0  0
  -13.3493    4.9342  -15.7081 C   0  0  0  0  0  0  0  0  0  0  0  0
  -12.7122    5.8256  -14.9333 F   0  0  0  0  0  0  0  0  0  0  0  0
  -13.5327    3.6263  -15.2553 C   0  0  0  0  0  0  0  0  0  0  0  0
  -13.0807    3.2756  -13.9813 N   0  0  0  0  0  0  0  0  0  0  0  0
  -13.2818    2.0481  -13.4260 C   0  0  0  0  0  0  0  0  0  0  0  0
  -12.9615    1.8325  -12.2564 O   0  0  0  0  0  0  0  0  0  0  0  0
  -14.8895   -0.5789  -16.0266 H   0  0  0  0  0  0  0  0  0  0  0  0
  -14.5731    0.3997  -17.3307 H   0  0  0  0  0  0  0  0  0  0  0  0
  -12.6378    3.9789  -13.4005 H   0  0  0  0  0  0  0  0  0  0  0  0
  -12.5272   -9.9748  -12.5788 C   0  0  0  0  0  0  0  0  0  0  0  0
  -13.3676   -8.8539  -12.1627 N   0  0  0  0  0  0  0  0  0  0  0  0
  -12.5482   -7.8241  -11.4773 C   0  0  0  0  0  0  0  0  0  0  0  0
  -13.3546   -6.5564  -11.1023 C   0  0  0  0  0  0  0  0  0  0  0  0
  -13.9660   -6.0161  -12.3239 N   0  0  0  0  0  0  0  0  0  0  0  0
  -14.8531   -6.9859  -12.9920 C   0  0  0  0  0  0  0  0  0  0  0  0
  -14.0389   -8.2527  -13.3411 C   0  0  0  0  0  0  0  0  0  0  0  0
 27 28  1  0  0  0
 28 29  1  0  0  0
 28 33  1  0  0  0
 29 30  1  0  0  0
 30 31  1  0  0  0
 31  1  1  0  0  0
 31 32  1  0  0  0
  1  2  1  0  0  0
  1  9  2  0  0  0
  2  3  2  0  0  0
  3  4  1  0  0  0
  4  5  1  0  0  0
  4  8  2  0  0  0
  5  6  1  0  0  0
  5 10  1  0  0  0
  6 11  1  0  0  0
  6  7  2  0  0  0
 11 12  2  0  0  0
 11 22  1  0  0  0
 12 13  1  0  0  0
 12 14  1  0  0  0
 13 24  1  0  0  0
 13 25  1  0  0  0
 14 15  1  0  0  0
 14 20  2  0  0  0
 15 16  2  0  0  0
 16 17  1  0  0  0
 17 18  2  0  0  0
 18 19  1  0  0  0
 18 20  1  0  0  0
 20 21  1  0  0  0
 21 22  1  0  0  0
 21 26  1  0  0  0
 22 23  2  0  0  0
  7  8  1  0  0  0
  8  9  1  0  0  0
 32 33  1  0  0  0
M  END
> <minimizedAffinity>
-7.96323

$$$$
