CHEMBL1940178


 34 39  0  0  0  0  0  0  0  0999 V2000
  -15.2661   -3.2484  -12.4373 C   0  0  0  0  0  0  0  0  0  0  0  0
  -15.6767   -1.9867  -12.9166 C   0  0  0  0  0  0  0  0  0  0  0  0
  -14.9309   -1.2675  -13.8534 C   0  0  0  0  0  0  0  0  0  0  0  0
  -13.7295   -1.7900  -14.3520 C   0  0  0  0  0  0  0  0  0  0  0  0
  -13.3190   -3.0377  -13.8457 C   0  0  0  0  0  0  0  0  0  0  0  0
  -14.0421   -3.7922  -12.8898 C   0  0  0  0  0  0  0  0  0  0  0  0
  -12.8693   -1.0629  -15.4073 C   0  0  0  0  0  0  0  0  0  0  0  0
  -11.4858   -0.7398  -14.8019 C   0  0  0  0  0  0  0  0  0  0  0  0
  -12.7219   -1.9614  -16.6556 C   0  0  0  0  0  0  0  0  0  0  0  0
  -13.5341    0.2302  -15.8088 C   0  0  0  0  0  0  0  0  0  0  0  0
  -13.0693    1.1234  -16.7424 N   0  0  0  0  0  0  0  0  0  0  0  0
  -13.9287    2.1989  -16.8301 C   0  0  0  0  0  0  0  0  0  0  0  0
  -13.8666    3.3535  -17.6297 C   0  0  0  0  0  0  0  0  0  0  0  0
  -14.9047    4.2929  -17.4928 C   0  0  0  0  0  0  0  0  0  0  0  0
  -15.9569    4.0806  -16.6039 C   0  0  0  0  0  0  0  0  0  0  0  0
  -16.0021    2.9256  -15.8207 C   0  0  0  0  0  0  0  0  0  0  0  0
  -14.9717    1.9738  -15.9329 C   0  0  0  0  0  0  0  0  0  0  0  0
  -14.7125    0.7349  -15.2981 C   0  0  0  0  0  0  0  0  0  0  0  0
  -15.4763    0.0416  -14.2894 C   0  0  0  0  0  0  0  0  0  0  0  0
  -16.5207    0.4894  -13.8187 O   0  0  0  0  0  0  0  0  0  0  0  0
  -12.2216    1.0225  -17.2842 H   0  0  0  0  0  0  0  0  0  0  0  0
  -13.5022   -4.9878  -12.4446 N   0  0  0  0  0  0  0  0  0  0  0  0
  -12.3184   -5.0603  -11.5798 C   0  0  0  0  0  0  0  0  0  0  0  0
  -11.1722   -5.8183  -12.2948 C   0  0  0  0  0  0  0  0  0  0  0  0
  -11.5181   -7.1786  -12.7781 N   0  0  0  0  0  0  0  0  0  0  0  0
  -12.7129   -7.0444  -13.6385 C   0  0  0  0  0  0  0  0  0  0  0  0
  -13.8899   -6.2790  -13.0050 C   0  0  0  0  0  0  0  0  0  0  0  0
  -11.7095   -8.1873  -11.7146 C   0  0  0  0  0  0  0  0  0  0  0  0
  -10.6967   -8.3936  -10.6203 C   0  0  0  0  0  0  0  0  0  0  0  0
  -10.8229   -9.4110  -11.7131 C   0  0  0  0  0  0  0  0  0  0  0  0
  -16.9268   -5.1287  -11.8862 C   0  0  0  0  0  0  0  0  0  0  0  0
  -16.1950   -3.8692  -11.4060 C   0  0  0  0  0  0  0  0  0  0  0  0
  -14.8698    5.4878  -18.2826 C   0  0  0  0  0  0  0  0  0  0  0  0
  -14.8254    6.4633  -18.9280 N   0  0  0  0  0  0  0  0  0  0  0  0
 31 32  1  0  0  0
 32  1  1  0  0  0
  1  2  1  0  0  0
  1  6  2  0  0  0
  2  3  2  0  0  0
  3  4  1  0  0  0
  3 19  1  0  0  0
  4  5  2  0  0  0
  4  7  1  0  0  0
  5  6  1  0  0  0
  6 22  1  0  0  0
 22 23  1  0  0  0
 22 27  1  0  0  0
 23 24  1  0  0  0
 24 25  1  0  0  0
 25 28  1  0  0  0
 25 26  1  0  0  0
 28 29  1  0  0  0
 28 30  1  0  0  0
 29 30  1  0  0  0
 26 27  1  0  0  0
  7  8  1  0  0  0
  7  9  1  0  0  0
  7 10  1  0  0  0
 10 11  1  0  0  0
 10 18  2  0  0  0
 11 12  1  0  0  0
 11 21  1  0  0  0
 12 13  1  0  0  0
 12 17  2  0  0  0
 13 14  2  0  0  0
 14 33  1  0  0  0
 14 15  1  0  0  0
 33 34  3  0  0  0
 15 16  2  0  0  0
 16 17  1  0  0  0
 17 18  1  0  0  0
 18 19  1  0  0  0
 19 20  2  0  0  0
M  END
> <minimizedAffinity>
-7.78898

$$$$
