CHEMBL2071275


 35 39  0  0  0  0  0  0  0  0999 V2000
  -13.1102   -2.4619  -13.7722 C   0  0  0  0  0  0  0  0  0  0  0  0
  -13.8453   -1.3369  -13.8120 N   0  0  0  0  0  0  0  0  0  0  0  0
  -13.6337   -0.4624  -14.8103 C   0  0  0  0  0  0  0  0  0  0  0  0
  -12.8082   -0.6968  -15.8404 N   0  0  0  0  0  0  0  0  0  0  0  0
  -12.1122   -1.8450  -15.8123 C   0  0  0  0  0  0  0  0  0  0  0  0
  -12.2027   -2.7545  -14.7862 C   0  0  0  0  0  0  0  0  0  0  0  0
  -11.2608   -4.1938  -14.8156 Cl  0  0  0  0  0  0  0  0  0  0  0  0
  -13.1470   -3.2495  -12.6030 N   0  0  0  0  0  0  0  0  0  0  0  0
  -12.1926   -3.5223  -12.3592 H   0  0  0  0  0  0  0  0  0  0  0  0
  -14.7987   -4.5382  -11.1672 C   0  0  0  0  0  0  0  0  0  0  0  0
  -16.3016   -4.4310  -11.5401 C   0  0  0  0  0  0  0  0  0  0  0  0
  -16.6533   -5.6853  -12.3104 C   0  0  0  0  0  0  0  0  0  0  0  0
  -16.0383   -5.5997  -13.4992 C   0  0  0  0  0  0  0  0  0  0  0  0
  -15.2949   -4.2737  -13.5278 C   0  0  0  0  0  0  0  0  0  0  0  0
  -16.2826   -3.4435  -12.7079 C   0  0  0  0  0  0  0  0  0  0  0  0
  -14.0742   -4.3913  -12.5631 C   0  0  0  0  0  0  0  0  0  0  0  0
  -15.4714   -2.9216   -9.4798 N   0  0  0  0  0  0  0  0  0  0  0  0
  -14.4138   -3.5547  -10.0785 C   0  0  0  0  0  0  0  0  0  0  0  0
  -13.2662   -3.2788   -9.7604 O   0  0  0  0  0  0  0  0  0  0  0  0
  -15.2170   -2.1673   -8.8513 H   0  0  0  0  0  0  0  0  0  0  0  0
  -16.3631   -2.8380   -9.9509 H   0  0  0  0  0  0  0  0  0  0  0  0
  -14.2265    0.7923  -14.6339 N   0  0  0  0  0  0  0  0  0  0  0  0
  -13.6461    1.4486  -15.1455 H   0  0  0  0  0  0  0  0  0  0  0  0
  -15.5468    1.0389  -14.4943 C   0  0  0  0  0  0  0  0  0  0  0  0
  -16.4071    0.8338  -13.4005 C   0  0  0  0  0  0  0  0  0  0  0  0
  -17.6773    1.1250  -13.6961 N   0  0  0  0  0  0  0  0  0  0  0  0
  -17.6305    1.4935  -14.9933 N   0  0  0  0  0  0  0  0  0  0  0  0
  -16.3557    1.5197  -15.4906 C   0  0  0  0  0  0  0  0  0  0  0  0
  -18.8906    1.7688  -15.6808 C   0  0  0  0  0  0  0  0  0  0  0  0
  -19.3745    3.2168  -15.5319 C   0  0  0  0  0  0  0  0  0  0  0  0
  -20.0958    3.4701  -14.2120 C   0  0  0  0  0  0  0  0  0  0  0  0
  -21.1483    2.4910  -13.9489 N   0  0  0  0  0  0  0  0  0  0  0  0
  -20.6760    1.1085  -14.0021 C   0  0  0  0  0  0  0  0  0  0  0  0
  -19.9980    0.7748  -15.3256 C   0  0  0  0  0  0  0  0  0  0  0  0
  -21.8993    2.6152  -14.6265 H   0  0  0  0  0  0  0  0  0  0  0  0
 17 18  1  0  0  0
 17 20  1  0  0  0
 17 21  1  0  0  0
 18 19  2  0  0  0
 18 10  1  0  0  0
 10 11  1  0  0  0
 10 16  1  0  0  0
 11 12  1  0  0  0
 11 15  1  0  0  0
 12 13  2  0  0  0
 13 14  1  0  0  0
 14 15  1  0  0  0
 14 16  1  0  0  0
 16  8  1  0  0  0
  8  1  1  0  0  0
  8  9  1  0  0  0
  1  2  1  0  0  0
  1  6  2  0  0  0
  2  3  2  0  0  0
  3 22  1  0  0  0
  3  4  1  0  0  0
 22 24  1  0  0  0
 22 23  1  0  0  0
 24 25  1  0  0  0
 24 28  2  0  0  0
 25 26  2  0  0  0
 26 27  1  0  0  0
 27 29  1  0  0  0
 27 28  1  0  0  0
 29 30  1  0  0  0
 29 34  1  0  0  0
 30 31  1  0  0  0
 31 32  1  0  0  0
 32 33  1  0  0  0
 32 35  1  0  0  0
 33 34  1  0  0  0
  4  5  2  0  0  0
  5  6  1  0  0  0
  6  7  1  0  0  0
M  END
> <minimizedAffinity>
-7.79034

$$$$
