CHEMBL3690390


 25 28  0  0  0  0  0  0  0  0999 V2000
  -28.0607   -2.3530   -8.6688 C   0  0  0  0  0  0  0  0  0  0  0  0
  -27.7391   -1.3686   -7.7337 C   0  0  0  0  0  0  0  0  0  0  0  0
  -27.8933   -1.6062   -6.3734 C   0  0  0  0  0  0  0  0  0  0  0  0
  -28.4053   -2.8226   -5.9372 C   0  0  0  0  0  0  0  0  0  0  0  0
  -28.8735   -3.7788   -6.8478 C   0  0  0  0  0  0  0  0  0  0  0  0
  -28.6656   -3.5421   -8.2210 C   0  0  0  0  0  0  0  0  0  0  0  0
  -29.5454   -4.9967   -6.3719 C   0  0  0  0  0  0  0  0  0  0  0  0
  -30.3993   -5.1816   -5.2921 C   0  0  0  0  0  0  0  0  0  0  0  0
  -30.8467   -6.4734   -5.1953 N   0  0  0  0  0  0  0  0  0  0  0  0
  -30.2839   -7.1110   -6.1983 C   0  0  0  0  0  0  0  0  0  0  0  0
  -30.3927   -8.4715   -6.6119 C   0  0  0  0  0  0  0  0  0  0  0  0
  -29.7000   -8.9066   -7.6810 C   0  0  0  0  0  0  0  0  0  0  0  0
  -29.8099  -10.5447   -8.2053 Cl  0  0  0  0  0  0  0  0  0  0  0  0
  -28.8171   -8.0208   -8.4178 C   0  0  0  0  0  0  0  0  0  0  0  0
  -28.6936   -6.7440   -8.0193 C   0  0  0  0  0  0  0  0  0  0  0  0
  -29.4451   -6.2713   -6.9342 N   0  0  0  0  0  0  0  0  0  0  0  0
  -25.6295   -1.3427   -9.9800 O   0  0  0  0  0  0  0  0  0  0  0  0
  -26.6233   -1.7067  -10.5992 C   0  0  0  0  0  0  0  0  0  0  0  0
  -27.7962   -2.2013  -10.0512 N   0  0  0  0  0  0  0  0  0  0  0  0
  -26.6684   -1.6782  -11.9815 N   0  0  0  0  0  0  0  0  0  0  0  0
  -28.4342   -2.6553  -10.6859 H   0  0  0  0  0  0  0  0  0  0  0  0
  -27.5214   -1.9345  -12.4520 H   0  0  0  0  0  0  0  0  0  0  0  0
  -25.5669   -1.2079  -12.7658 C   0  0  0  0  0  0  0  0  0  0  0  0
  -25.3955   -1.6360  -14.1973 C   0  0  0  0  0  0  0  0  0  0  0  0
  -24.4500   -2.1387  -13.1458 C   0  0  0  0  0  0  0  0  0  0  0  0
 17 18  2  0  0  0
 18 19  1  0  0  0
 18 20  1  0  0  0
 19  1  1  0  0  0
 19 21  1  0  0  0
  1  2  1  0  0  0
  1  6  2  0  0  0
  2  3  2  0  0  0
  3  4  1  0  0  0
  4  5  2  0  0  0
  5  7  1  0  0  0
  5  6  1  0  0  0
  7  8  2  0  0  0
  7 16  1  0  0  0
  8  9  1  0  0  0
  9 10  2  0  0  0
 10 11  1  0  0  0
 10 16  1  0  0  0
 11 12  2  0  0  0
 12 13  1  0  0  0
 12 14  1  0  0  0
 14 15  2  0  0  0
 15 16  1  0  0  0
 20 23  1  0  0  0
 20 22  1  0  0  0
 23 24  1  0  0  0
 23 25  1  0  0  0
 24 25  1  0  0  0
M  END
> <minimizedAffinity>
-8.62304

$$$$
