CHEMBL1997822


 33 37  0  0  0  0  0  0  0  0999 V2000
  -21.1263    0.2694  -14.5676 C   0  0  0  0  0  0  0  0  0  0  0  0
  -20.2615   -0.7235  -14.9815 C   0  0  0  0  0  0  0  0  0  0  0  0
  -18.7169   -0.1525  -15.3199 S   0  0  0  0  0  0  0  0  0  0  0  0
  -19.2055    1.5098  -15.2107 C   0  0  0  0  0  0  0  0  0  0  0  0
  -18.4224    2.6511  -15.5357 C   0  0  0  0  0  0  0  0  0  0  0  0
  -19.0493    3.8544  -15.2357 C   0  0  0  0  0  0  0  0  0  0  0  0
  -20.2636    3.9964  -14.6781 N   0  0  0  0  0  0  0  0  0  0  0  0
  -21.0041    2.9095  -14.3986 C   0  0  0  0  0  0  0  0  0  0  0  0
  -22.2256    3.2116  -13.8142 N   0  0  0  0  0  0  0  0  0  0  0  0
  -20.5156    1.6033  -14.6900 C   0  0  0  0  0  0  0  0  0  0  0  0
  -22.2407    4.1858  -13.5345 H   0  0  0  0  0  0  0  0  0  0  0  0
  -22.5353    2.5472  -13.1174 H   0  0  0  0  0  0  0  0  0  0  0  0
  -26.8794   -1.9137  -10.2844 C   0  0  0  0  0  0  0  0  0  0  0  0
  -25.8572   -1.4267  -11.2373 C   0  0  0  0  0  0  0  0  0  0  0  0
  -24.5311   -1.0991  -11.0497 C   0  0  0  0  0  0  0  0  0  0  0  0
  -23.9941   -0.7306  -12.3115 C   0  0  0  0  0  0  0  0  0  0  0  0
  -22.7209   -0.3160  -12.7438 C   0  0  0  0  0  0  0  0  0  0  0  0
  -22.4687   -0.1276  -14.1184 C   0  0  0  0  0  0  0  0  0  0  0  0
  -23.5037   -0.3556  -15.0288 C   0  0  0  0  0  0  0  0  0  0  0  0
  -24.8066   -0.6526  -14.6137 C   0  0  0  0  0  0  0  0  0  0  0  0
  -25.0114   -0.8614  -13.2498 C   0  0  0  0  0  0  0  0  0  0  0  0
  -26.1443   -1.2344  -12.5667 N   0  0  0  0  0  0  0  0  0  0  0  0
  -27.0444   -1.3968  -12.9982 H   0  0  0  0  0  0  0  0  0  0  0  0
  -17.0629    2.5987  -16.1217 C   0  0  0  0  0  0  0  0  0  0  0  0
  -16.2024    1.5107  -15.8762 C   0  0  0  0  0  0  0  0  0  0  0  0
  -14.9223    1.4392  -16.4412 C   0  0  0  0  0  0  0  0  0  0  0  0
  -14.4763    2.4429  -17.2955 C   0  0  0  0  0  0  0  0  0  0  0  0
  -15.3057    3.5317  -17.5473 C   0  0  0  0  0  0  0  0  0  0  0  0
  -16.5595    3.6316  -16.9311 C   0  0  0  0  0  0  0  0  0  0  0  0
  -14.7644    4.8407  -18.6192 S   0  0  0  0  0  0  0  0  0  0  0  0
  -13.1762    4.2929  -19.1881 C   0  0  0  0  0  0  0  0  0  0  0  0
  -15.6642    4.8813  -19.7546 O   0  0  0  0  0  0  0  0  0  0  0  0
  -14.5608    6.0182  -17.7881 O   0  0  0  0  0  0  0  0  0  0  0  0
 13 14  1  0  0  0
 14 15  2  0  0  0
 14 22  1  0  0  0
 15 16  1  0  0  0
 16 17  1  0  0  0
 16 21  2  0  0  0
 17 18  2  0  0  0
 18  1  1  0  0  0
 18 19  1  0  0  0
  1  2  2  0  0  0
  1 10  1  0  0  0
  2  3  1  0  0  0
  3  4  1  0  0  0
  4  5  1  0  0  0
  4 10  2  0  0  0
  5 24  1  0  0  0
  5  6  2  0  0  0
 24 25  1  0  0  0
 24 29  2  0  0  0
 25 26  2  0  0  0
 26 27  1  0  0  0
 27 28  2  0  0  0
 28 30  1  0  0  0
 28 29  1  0  0  0
 30 31  1  0  0  0
 30 32  2  0  0  0
 30 33  2  0  0  0
  6  7  1  0  0  0
  7  8  2  0  0  0
  8  9  1  0  0  0
  8 10  1  0  0  0
  9 11  1  0  0  0
  9 12  1  0  0  0
 19 20  2  0  0  0
 20 21  1  0  0  0
 21 22  1  0  0  0
 22 23  1  0  0  0
M  END
> <minimizedAffinity>
-8.17498

$$$$
