CHEMBL2086746


 37 41  0  0  0  0  0  0  0  0999 V2000
  -15.2940   -2.4546  -13.2645 C   0  0  0  0  0  0  0  0  0  0  0  0
  -15.9546   -2.8225  -12.0787 C   0  0  0  0  0  0  0  0  0  0  0  0
  -16.1483   -4.1697  -11.7852 C   0  0  0  0  0  0  0  0  0  0  0  0
  -15.6582   -5.1047  -12.6851 C   0  0  0  0  0  0  0  0  0  0  0  0
  -14.9621   -4.7789  -13.8582 C   0  0  0  0  0  0  0  0  0  0  0  0
  -14.7789   -3.4256  -14.1528 C   0  0  0  0  0  0  0  0  0  0  0  0
  -14.5979   -6.0931  -14.5049 C   0  0  0  0  0  0  0  0  0  0  0  0
  -13.8359   -6.3449  -15.6028 C   0  0  0  0  0  0  0  0  0  0  0  0
  -15.1538   -7.1622  -13.5771 C   0  0  0  0  0  0  0  0  0  0  0  0
  -15.0505   -8.3705  -13.6109 O   0  0  0  0  0  0  0  0  0  0  0  0
  -15.7715   -6.4778  -12.5473 N   0  0  0  0  0  0  0  0  0  0  0  0
  -16.1949   -6.9594  -11.7670 H   0  0  0  0  0  0  0  0  0  0  0  0
  -13.5301   -7.6646  -16.1290 C   0  0  0  0  0  0  0  0  0  0  0  0
  -12.8139   -8.7150  -15.7386 N   0  0  0  0  0  0  0  0  0  0  0  0
  -12.8319   -9.6197  -16.7955 C   0  0  0  0  0  0  0  0  0  0  0  0
  -12.1891  -10.8552  -16.9958 C   0  0  0  0  0  0  0  0  0  0  0  0
  -12.3002  -11.4839  -18.2549 C   0  0  0  0  0  0  0  0  0  0  0  0
  -13.0637  -10.9203  -19.2802 C   0  0  0  0  0  0  0  0  0  0  0  0
  -13.7842   -9.7475  -19.0669 C   0  0  0  0  0  0  0  0  0  0  0  0
  -13.6305   -9.1418  -17.8202 C   0  0  0  0  0  0  0  0  0  0  0  0
  -14.1774   -8.0091  -17.3016 N   0  0  0  0  0  0  0  0  0  0  0  0
  -14.8873   -7.4652  -17.7645 H   0  0  0  0  0  0  0  0  0  0  0  0
  -13.1611   -5.1806  -16.2371 C   0  0  0  0  0  0  0  0  0  0  0  0
  -11.8569   -4.8385  -15.8360 C   0  0  0  0  0  0  0  0  0  0  0  0
  -11.1325   -3.8901  -16.5520 C   0  0  0  0  0  0  0  0  0  0  0  0
  -11.7150   -3.2593  -17.6489 C   0  0  0  0  0  0  0  0  0  0  0  0
  -13.0187   -3.5750  -18.0370 C   0  0  0  0  0  0  0  0  0  0  0  0
  -13.7410   -4.5455  -17.3425 C   0  0  0  0  0  0  0  0  0  0  0  0
  -15.0329   -0.7079  -13.5553 S   0  0  0  0  0  0  0  0  0  0  0  0
  -13.8346   -0.5511  -14.3476 O   0  0  0  0  0  0  0  0  0  0  0  0
  -15.2027   -0.0595  -12.2745 O   0  0  0  0  0  0  0  0  0  0  0  0
  -16.3691   -0.2710  -14.5083 N   0  0  0  0  0  0  0  0  0  0  0  0
  -16.2391   -0.5071  -15.4909 H   0  0  0  0  0  0  0  0  0  0  0  0
  -16.9757    1.0463  -14.2572 C   0  0  0  0  0  0  0  0  0  0  0  0
  -17.8531    1.4750  -15.4393 C   0  0  0  0  0  0  0  0  0  0  0  0
  -20.2439    0.7300  -15.1105 C   0  0  0  0  0  0  0  0  0  0  0  0
  -19.2703    1.8973  -15.0347 C   0  0  0  0  0  0  0  0  0  0  0  0
 36 37  1  0  0  0
 37 35  1  0  0  0
 35 34  1  0  0  0
 34 32  1  0  0  0
 32 29  1  0  0  0
 32 33  1  0  0  0
 29 30  2  0  0  0
 29 31  2  0  0  0
 29  1  1  0  0  0
  1  2  1  0  0  0
  1  6  2  0  0  0
  2  3  2  0  0  0
  3  4  1  0  0  0
  4  5  2  0  0  0
  4 11  1  0  0  0
  5  6  1  0  0  0
  5  7  1  0  0  0
  7  8  2  0  0  0
  7  9  1  0  0  0
  8 23  1  0  0  0
  8 13  1  0  0  0
 23 24  1  0  0  0
 23 28  2  0  0  0
 24 25  2  0  0  0
 25 26  1  0  0  0
 26 27  2  0  0  0
 27 28  1  0  0  0
 13 14  2  0  0  0
 13 21  1  0  0  0
 14 15  1  0  0  0
 15 16  1  0  0  0
 15 20  2  0  0  0
 16 17  2  0  0  0
 17 18  1  0  0  0
 18 19  2  0  0  0
 19 20  1  0  0  0
 20 21  1  0  0  0
 21 22  1  0  0  0
  9 10  2  0  0  0
  9 11  1  0  0  0
 11 12  1  0  0  0
M  END
> <minimizedAffinity>
-8.24153

$$$$
