CHEMBL3903506


 42 46  0  0  0  0  0  0  0  0999 V2000
  -13.3632   -0.9039  -13.5149 C   0  0  0  0  0  0  0  0  0  0  0  0
  -12.3081   -1.7935  -13.2608 C   0  0  0  0  0  0  0  0  0  0  0  0
  -12.5309   -3.0961  -12.8245 C   0  0  0  0  0  0  0  0  0  0  0  0
  -13.8292   -3.5830  -12.6365 C   0  0  0  0  0  0  0  0  0  0  0  0
  -14.8947   -2.7033  -12.8930 C   0  0  0  0  0  0  0  0  0  0  0  0
  -14.6632   -1.3770  -13.3226 C   0  0  0  0  0  0  0  0  0  0  0  0
  -13.4280    3.9415  -15.1020 C   0  0  0  0  0  0  0  0  0  0  0  0
  -12.4235    4.8458  -15.1192 N   0  0  0  0  0  0  0  0  0  0  0  0
  -11.2053    4.4645  -14.6752 C   0  0  0  0  0  0  0  0  0  0  0  0
  -10.8188    3.2560  -14.2178 N   0  0  0  0  0  0  0  0  0  0  0  0
  -11.8357    2.3827  -14.2239 C   0  0  0  0  0  0  0  0  0  0  0  0
  -11.7791    1.0826  -13.8046 N   0  0  0  0  0  0  0  0  0  0  0  0
  -13.0173    0.4703  -13.9242 C   0  0  0  0  0  0  0  0  0  0  0  0
  -13.8627    1.4503  -14.4502 C   0  0  0  0  0  0  0  0  0  0  0  0
  -13.1279    2.6458  -14.6483 C   0  0  0  0  0  0  0  0  0  0  0  0
  -10.9485    0.6635  -13.4118 H   0  0  0  0  0  0  0  0  0  0  0  0
  -14.7259    4.2742  -15.4985 N   0  0  0  0  0  0  0  0  0  0  0  0
  -15.3180    4.2082  -14.6722 H   0  0  0  0  0  0  0  0  0  0  0  0
  -15.5606    4.3167  -17.8284 C   0  0  0  0  0  0  0  0  0  0  0  0
  -15.2911    3.4611  -16.5826 C   0  0  0  0  0  0  0  0  0  0  0  0
  -16.6025    2.8522  -16.0922 C   0  0  0  0  0  0  0  0  0  0  0  0
  -17.7288    3.6626  -15.8823 C   0  0  0  0  0  0  0  0  0  0  0  0
  -18.9119    3.1183  -15.3747 C   0  0  0  0  0  0  0  0  0  0  0  0
  -18.9860    1.7592  -15.0741 C   0  0  0  0  0  0  0  0  0  0  0  0
  -17.8830    0.9383  -15.2928 C   0  0  0  0  0  0  0  0  0  0  0  0
  -16.7029    1.4790  -15.8049 C   0  0  0  0  0  0  0  0  0  0  0  0
  -14.0029   -5.0334  -12.1995 C   0  0  0  0  0  0  0  0  0  0  0  0
  -14.7617   -5.8775  -13.1403 N   0  0  0  0  0  0  0  0  0  0  0  0
  -14.8993   -7.2718  -12.6600 C   0  0  0  0  0  0  0  0  0  0  0  0
  -13.6225   -8.1440  -12.7512 C   0  0  0  0  0  0  0  0  0  0  0  0
  -12.8844   -8.1003  -14.0272 N   0  0  0  0  0  0  0  0  0  0  0  0
  -12.9103   -6.7596  -14.6450 C   0  0  0  0  0  0  0  0  0  0  0  0
  -14.2002   -5.9309  -14.4926 C   0  0  0  0  0  0  0  0  0  0  0  0
  -13.2445   -9.1999  -14.9299 C   0  0  0  0  0  0  0  0  0  0  0  0
  -12.9434   -8.9058  -16.4107 C   0  0  0  0  0  0  0  0  0  0  0  0
  -12.6128  -10.1724  -17.1996 C   0  0  0  0  0  0  0  0  0  0  0  0
  -13.7741  -10.6151  -18.0576 C   0  0  0  0  0  0  0  0  0  0  0  0
  -13.9938  -10.2211  -19.1995 O   0  0  0  0  0  0  0  0  0  0  0  0
  -14.5951  -11.5286  -17.4320 N   0  0  0  0  0  0  0  0  0  0  0  0
  -15.6253  -12.0522  -18.2489 O   0  0  0  0  0  0  0  0  0  0  0  0
  -14.2451  -12.1443  -16.7036 H   0  0  0  0  0  0  0  0  0  0  0  0
  -15.5173  -11.5339  -19.0783 H   0  0  0  0  0  0  0  0  0  0  0  0
 19 20  1  0  0  0
 20 17  1  0  0  0
 20 21  1  0  0  0
 17  7  1  0  0  0
 17 18  1  0  0  0
  7  8  1  0  0  0
  7 15  2  0  0  0
  8  9  2  0  0  0
  9 10  1  0  0  0
 10 11  2  0  0  0
 11 12  1  0  0  0
 11 15  1  0  0  0
 12 13  1  0  0  0
 12 16  1  0  0  0
 13  1  1  0  0  0
 13 14  2  0  0  0
  1  2  1  0  0  0
  1  6  2  0  0  0
  2  3  2  0  0  0
  3  4  1  0  0  0
  4 27  1  0  0  0
  4  5  2  0  0  0
 27 28  1  0  0  0
 28 29  1  0  0  0
 28 33  1  0  0  0
 29 30  1  0  0  0
 30 31  1  0  0  0
 31 34  1  0  0  0
 31 32  1  0  0  0
 34 35  1  0  0  0
 35 36  1  0  0  0
 36 37  1  0  0  0
 37 38  2  0  0  0
 37 39  1  0  0  0
 39 40  1  0  0  0
 39 41  1  0  0  0
 40 42  1  0  0  0
 32 33  1  0  0  0
  5  6  1  0  0  0
 14 15  1  0  0  0
 21 22  1  0  0  0
 21 26  2  0  0  0
 22 23  2  0  0  0
 23 24  1  0  0  0
 24 25  2  0  0  0
 25 26  1  0  0  0
M  END
> <minimizedAffinity>
-7.74320

$$$$
