CHEMBL1738797


 37 42  0  0  0  0  0  0  0  0999 V2000
  -16.0053    0.4416  -13.9784 C   0  0  0  0  0  0  0  0  0  0  0  0
  -16.0361   -0.8887  -13.4938 C   0  0  0  0  0  0  0  0  0  0  0  0
  -15.0014   -1.7984  -13.7644 C   0  0  0  0  0  0  0  0  0  0  0  0
  -13.9504   -1.4170  -14.6113 C   0  0  0  0  0  0  0  0  0  0  0  0
  -13.9627   -0.1094  -15.1061 C   0  0  0  0  0  0  0  0  0  0  0  0
  -14.8973    0.8731  -14.7327 C   0  0  0  0  0  0  0  0  0  0  0  0
  -12.7760   -2.3334  -14.9900 C   0  0  0  0  0  0  0  0  0  0  0  0
  -12.8057   -2.5663  -16.5155 C   0  0  0  0  0  0  0  0  0  0  0  0
  -11.4356   -1.6720  -14.5857 C   0  0  0  0  0  0  0  0  0  0  0  0
  -12.9083   -3.6493  -14.2794 C   0  0  0  0  0  0  0  0  0  0  0  0
  -12.0226   -4.6883  -14.3613 N   0  0  0  0  0  0  0  0  0  0  0  0
  -12.4598   -5.7369  -13.5850 C   0  0  0  0  0  0  0  0  0  0  0  0
  -11.8886   -6.9972  -13.3697 C   0  0  0  0  0  0  0  0  0  0  0  0
  -12.5703   -7.8723  -12.5156 C   0  0  0  0  0  0  0  0  0  0  0  0
  -13.7665   -7.5030  -11.8990 C   0  0  0  0  0  0  0  0  0  0  0  0
  -14.3203   -6.2393  -12.1287 C   0  0  0  0  0  0  0  0  0  0  0  0
  -13.6608   -5.3413  -12.9902 C   0  0  0  0  0  0  0  0  0  0  0  0
  -13.9375   -4.0276  -13.4393 C   0  0  0  0  0  0  0  0  0  0  0  0
  -15.0568   -3.1515  -13.1352 C   0  0  0  0  0  0  0  0  0  0  0  0
  -15.9838   -3.4793  -12.4119 O   0  0  0  0  0  0  0  0  0  0  0  0
  -11.1664   -4.6925  -14.9049 H   0  0  0  0  0  0  0  0  0  0  0  0
  -14.5984    2.2306  -14.9937 N   0  0  0  0  0  0  0  0  0  0  0  0
  -13.1629    2.5677  -14.8852 C   0  0  0  0  0  0  0  0  0  0  0  0
  -12.9979    4.0630  -14.7194 C   0  0  0  0  0  0  0  0  0  0  0  0
  -13.5688    4.8325  -15.9228 C   0  0  0  0  0  0  0  0  0  0  0  0
  -15.0326    4.3548  -16.1280 C   0  0  0  0  0  0  0  0  0  0  0  0
  -15.1967    2.8279  -16.1948 C   0  0  0  0  0  0  0  0  0  0  0  0
  -12.8088    4.7384  -17.1987 N   0  0  0  0  0  0  0  0  0  0  0  0
  -11.4099    5.2314  -17.1723 C   0  0  0  0  0  0  0  0  0  0  0  0
  -11.2756    6.7602  -17.0910 C   0  0  0  0  0  0  0  0  0  0  0  0
  -11.9299    7.3847  -18.2005 O   0  0  0  0  0  0  0  0  0  0  0  0
  -13.3133    7.0187  -18.2327 C   0  0  0  0  0  0  0  0  0  0  0  0
  -13.4982    5.4867  -18.2908 C   0  0  0  0  0  0  0  0  0  0  0  0
  -18.2470    1.2358  -14.7625 C   0  0  0  0  0  0  0  0  0  0  0  0
  -17.2018    1.3056  -13.6499 C   0  0  0  0  0  0  0  0  0  0  0  0
  -12.0239   -9.1739  -12.2682 C   0  0  0  0  0  0  0  0  0  0  0  0
  -11.5715  -10.2196  -12.0687 N   0  0  0  0  0  0  0  0  0  0  0  0
 34 35  1  0  0  0
 35  1  1  0  0  0
  1  2  1  0  0  0
  1  6  2  0  0  0
  2  3  2  0  0  0
  3  4  1  0  0  0
  3 19  1  0  0  0
  4  5  2  0  0  0
  4  7  1  0  0  0
  5  6  1  0  0  0
  6 22  1  0  0  0
 22 23  1  0  0  0
 22 27  1  0  0  0
 23 24  1  0  0  0
 24 25  1  0  0  0
 25 28  1  0  0  0
 25 26  1  0  0  0
 28 29  1  0  0  0
 28 33  1  0  0  0
 29 30  1  0  0  0
 30 31  1  0  0  0
 31 32  1  0  0  0
 32 33  1  0  0  0
 26 27  1  0  0  0
  7  8  1  0  0  0
  7  9  1  0  0  0
  7 10  1  0  0  0
 10 11  1  0  0  0
 10 18  2  0  0  0
 11 12  1  0  0  0
 11 21  1  0  0  0
 12 13  1  0  0  0
 12 17  2  0  0  0
 13 14  2  0  0  0
 14 36  1  0  0  0
 14 15  1  0  0  0
 36 37  3  0  0  0
 15 16  2  0  0  0
 16 17  1  0  0  0
 17 18  1  0  0  0
 18 19  1  0  0  0
 19 20  2  0  0  0
M  END
> <minimizedAffinity>
-7.54467

$$$$
