CHEMBL318263


 25 28  0  0  0  0  0  0  0  0999 V2000
  -29.5170   -6.5071   -6.5996 N   0  0  0  0  0  0  0  0  0  0  0  0
  -28.9214   -5.5311   -7.3578 C   0  0  0  0  0  0  0  0  0  0  0  0
  -29.1833   -4.3018   -6.7856 C   0  0  0  0  0  0  0  0  0  0  0  0
  -30.0514   -4.5448   -5.6694 C   0  0  0  0  0  0  0  0  0  0  0  0
  -30.6729   -3.7173   -4.7047 C   0  0  0  0  0  0  0  0  0  0  0  0
  -31.5089   -4.2767   -3.7360 C   0  0  0  0  0  0  0  0  0  0  0  0
  -31.7151   -5.6476   -3.6915 C   0  0  0  0  0  0  0  0  0  0  0  0
  -31.0874   -6.4979   -4.6047 C   0  0  0  0  0  0  0  0  0  0  0  0
  -30.2590   -5.9299   -5.5894 C   0  0  0  0  0  0  0  0  0  0  0  0
  -28.6224   -3.0609   -7.3032 C   0  0  0  0  0  0  0  0  0  0  0  0
  -28.5697   -1.8972   -6.5417 C   0  0  0  0  0  0  0  0  0  0  0  0
  -28.0180   -0.7316   -6.9593 N   0  0  0  0  0  0  0  0  0  0  0  0
  -27.5121   -0.7188   -8.2154 C   0  0  0  0  0  0  0  0  0  0  0  0
  -27.5343   -1.8057   -9.0855 C   0  0  0  0  0  0  0  0  0  0  0  0
  -28.0986   -2.9923   -8.5988 C   0  0  0  0  0  0  0  0  0  0  0  0
  -27.0179   -1.7014  -10.4482 C   0  0  0  0  0  0  0  0  0  0  0  0
  -27.7721   -1.7809  -11.6666 C   0  0  0  0  0  0  0  0  0  0  0  0
  -26.9826   -1.6729  -12.7901 C   0  0  0  0  0  0  0  0  0  0  0  0
  -25.3326   -1.4707  -12.3975 S   0  0  0  0  0  0  0  0  0  0  0  0
  -25.6735   -1.5189  -10.7213 C   0  0  0  0  0  0  0  0  0  0  0  0
  -29.3695   -7.9344   -6.8651 C   0  0  0  0  0  0  0  0  0  0  0  0
  -30.3931   -8.4510   -7.8941 C   0  0  0  0  0  0  0  0  0  0  0  0
  -32.7091   -8.6005   -7.2409 C   0  0  0  0  0  0  0  0  0  0  0  0
  -31.4406   -9.3343   -7.3360 N   0  0  0  0  0  0  0  0  0  0  0  0
  -31.6366  -10.5406   -8.1427 C   0  0  0  0  0  0  0  0  0  0  0  0
 23 24  1  0  0  0
 24 25  1  0  0  0
 24 22  1  0  0  0
 22 21  1  0  0  0
 21  1  1  0  0  0
  1  2  1  0  0  0
  1  9  1  0  0  0
  2  3  2  0  0  0
  3 10  1  0  0  0
  3  4  1  0  0  0
 10 11  1  0  0  0
 10 15  2  0  0  0
 11 12  2  0  0  0
 12 13  1  0  0  0
 13 14  2  0  0  0
 14 16  1  0  0  0
 14 15  1  0  0  0
 16 17  1  0  0  0
 16 20  2  0  0  0
 17 18  2  0  0  0
 18 19  1  0  0  0
 19 20  1  0  0  0
  4  5  1  0  0  0
  4  9  2  0  0  0
  5  6  2  0  0  0
  6  7  1  0  0  0
  7  8  2  0  0  0
  8  9  1  0  0  0
M  END
> <minimizedAffinity>
-8.30414

$$$$
