CHEMBL3656058


 29 32  0  0  0  0  0  0  0  0999 V2000
  -27.8791   -2.5418   -8.6180 C   0  0  0  0  0  0  0  0  0  0  0  0
  -28.8080   -3.5613   -8.4134 C   0  0  0  0  0  0  0  0  0  0  0  0
  -29.5100   -3.6576   -7.2121 C   0  0  0  0  0  0  0  0  0  0  0  0
  -29.2366   -2.7807   -6.1625 C   0  0  0  0  0  0  0  0  0  0  0  0
  -28.3135   -1.7528   -6.3563 C   0  0  0  0  0  0  0  0  0  0  0  0
  -27.6299   -1.6391   -7.5760 C   0  0  0  0  0  0  0  0  0  0  0  0
  -27.4671   -1.4312  -10.8214 C   0  0  0  0  0  0  0  0  0  0  0  0
  -28.3674   -0.5987  -10.7741 O   0  0  0  0  0  0  0  0  0  0  0  0
  -27.1912   -2.3697   -9.8351 N   0  0  0  0  0  0  0  0  0  0  0  0
  -26.3526   -2.9201   -9.9874 H   0  0  0  0  0  0  0  0  0  0  0  0
  -28.0401   -2.2135  -13.9178 C   0  0  0  0  0  0  0  0  0  0  0  0
  -26.7541   -1.8296  -13.2773 C   0  0  0  0  0  0  0  0  0  0  0  0
  -25.4842   -1.7272  -13.9067 C   0  0  0  0  0  0  0  0  0  0  0  0
  -24.5972   -1.3315  -12.9356 C   0  0  0  0  0  0  0  0  0  0  0  0
  -25.2283   -1.1777  -11.7431 O   0  0  0  0  0  0  0  0  0  0  0  0
  -26.5450   -1.4937  -11.9451 C   0  0  0  0  0  0  0  0  0  0  0  0
  -29.8574   -2.8419   -4.9324 O   0  0  0  0  0  0  0  0  0  0  0  0
  -30.2020   -4.0771   -4.4230 C   0  0  0  0  0  0  0  0  0  0  0  0
  -31.4513   -4.3582   -3.8740 C   0  0  0  0  0  0  0  0  0  0  0  0
  -31.6574   -5.6126   -3.3358 C   0  0  0  0  0  0  0  0  0  0  0  0
  -30.7417   -6.6019   -3.3715 N   0  0  0  0  0  0  0  0  0  0  0  0
  -29.5596   -6.3290   -3.9791 C   0  0  0  0  0  0  0  0  0  0  0  0
  -29.2465   -5.0863   -4.5102 C   0  0  0  0  0  0  0  0  0  0  0  0
  -28.6468   -7.4674   -4.0191 C   0  0  0  0  0  0  0  0  0  0  0  0
  -28.7807   -8.7955   -3.6508 C   0  0  0  0  0  0  0  0  0  0  0  0
  -27.5458   -9.4480   -3.8961 C   0  0  0  0  0  0  0  0  0  0  0  0
  -26.6828   -8.5102   -4.4135 C   0  0  0  0  0  0  0  0  0  0  0  0
  -27.3569   -7.3223   -4.4864 N   0  0  0  0  0  0  0  0  0  0  0  0
  -26.9924   -6.4402   -4.8251 H   0  0  0  0  0  0  0  0  0  0  0  0
 11 12  1  0  0  0
 12 13  1  0  0  0
 12 16  2  0  0  0
 13 14  2  0  0  0
 14 15  1  0  0  0
 15 16  1  0  0  0
 16  7  1  0  0  0
  7  8  2  0  0  0
  7  9  1  0  0  0
  9  1  1  0  0  0
  9 10  1  0  0  0
  1  2  1  0  0  0
  1  6  2  0  0  0
  2  3  2  0  0  0
  3  4  1  0  0  0
  4 17  1  0  0  0
  4  5  2  0  0  0
 17 18  1  0  0  0
 18 19  1  0  0  0
 18 23  2  0  0  0
 19 20  2  0  0  0
 20 21  1  0  0  0
 21 22  2  0  0  0
 22 24  1  0  0  0
 22 23  1  0  0  0
 24 25  2  0  0  0
 24 28  1  0  0  0
 25 26  1  0  0  0
 26 27  2  0  0  0
 27 28  1  0  0  0
 28 29  1  0  0  0
  5  6  1  0  0  0
M  END
> <minimizedAffinity>
-9.57515

$$$$
