CHEMBL419526


 19 21  0  0  0  0  0  0  0  0999 V2000
  -21.1645    1.4136  -14.4003 C   0  0  0  0  0  0  0  0  0  0  0  0
  -22.3050    2.0810  -14.0247 C   0  0  0  0  0  0  0  0  0  0  0  0
  -23.2560    1.1933  -13.6263 N   0  0  0  0  0  0  0  0  0  0  0  0
  -22.6851    0.0134  -13.7421 C   0  0  0  0  0  0  0  0  0  0  0  0
  -21.4037    0.0695  -14.2342 O   0  0  0  0  0  0  0  0  0  0  0  0
  -17.3116    2.6123  -15.7779 C   0  0  0  0  0  0  0  0  0  0  0  0
  -17.5568    1.2850  -15.4437 C   0  0  0  0  0  0  0  0  0  0  0  0
  -18.8264    0.9052  -15.0081 C   0  0  0  0  0  0  0  0  0  0  0  0
  -19.8666    1.8442  -14.8953 C   0  0  0  0  0  0  0  0  0  0  0  0
  -19.6099    3.1723  -15.2516 C   0  0  0  0  0  0  0  0  0  0  0  0
  -18.3359    3.5524  -15.6886 C   0  0  0  0  0  0  0  0  0  0  0  0
  -23.1473   -1.1991  -13.4006 N   0  0  0  0  0  0  0  0  0  0  0  0
  -22.5195   -1.8485  -12.9475 H   0  0  0  0  0  0  0  0  0  0  0  0
  -24.4656   -1.4471  -13.0041 C   0  0  0  0  0  0  0  0  0  0  0  0
  -25.5084   -1.6447  -13.9122 C   0  0  0  0  0  0  0  0  0  0  0  0
  -26.8214   -1.7421  -13.4593 C   0  0  0  0  0  0  0  0  0  0  0  0
  -27.0663   -1.6922  -12.0996 C   0  0  0  0  0  0  0  0  0  0  0  0
  -25.9785   -1.5673  -11.2533 C   0  0  0  0  0  0  0  0  0  0  0  0
  -24.6952   -1.4459  -11.6722 N   0  0  0  0  0  0  0  0  0  0  0  0
  6  7  1  0  0  0
  6 11  2  0  0  0
  7  8  2  0  0  0
  8  9  1  0  0  0
  9  1  1  0  0  0
  9 10  2  0  0  0
  1  2  2  0  0  0
  1  5  1  0  0  0
  2  3  1  0  0  0
  3  4  2  0  0  0
  4 12  1  0  0  0
  4  5  1  0  0  0
 12 14  1  0  0  0
 12 13  1  0  0  0
 14 15  1  0  0  0
 14 19  2  0  0  0
 15 16  2  0  0  0
 16 17  1  0  0  0
 17 18  2  0  0  0
 18 19  1  0  0  0
 10 11  1  0  0  0
M  END
> <minimizedAffinity>
-8.51738

$$$$
