CHEMBL2063436


 41 45  0  0  0  0  0  0  0  0999 V2000
  -20.0316    1.8786  -15.1278 C   0  0  0  0  0  0  0  0  0  0  0  0
  -20.8503    0.7834  -15.0547 C   0  0  0  0  0  0  0  0  0  0  0  0
  -21.9070    1.1440  -14.1609 C   0  0  0  0  0  0  0  0  0  0  0  0
  -21.7464    2.4068  -13.7309 N   0  0  0  0  0  0  0  0  0  0  0  0
  -20.6145    2.8141  -14.3175 N   0  0  0  0  0  0  0  0  0  0  0  0
  -20.2649    3.7508  -14.1508 H   0  0  0  0  0  0  0  0  0  0  0  0
  -23.0411    0.3307  -13.7109 C   0  0  0  0  0  0  0  0  0  0  0  0
  -23.7661   -0.4634  -14.6073 C   0  0  0  0  0  0  0  0  0  0  0  0
  -24.8522   -1.2280  -14.1692 C   0  0  0  0  0  0  0  0  0  0  0  0
  -25.2456   -1.2053  -12.8257 C   0  0  0  0  0  0  0  0  0  0  0  0
  -24.5120   -0.4289  -11.9199 C   0  0  0  0  0  0  0  0  0  0  0  0
  -23.4244    0.3323  -12.3604 C   0  0  0  0  0  0  0  0  0  0  0  0
  -26.4411   -1.9959  -12.3694 C   0  0  0  0  0  0  0  0  0  0  0  0
  -26.3731   -2.3414  -10.9731 N   0  0  0  0  0  0  0  0  0  0  0  0
  -27.2764   -1.8272  -10.0902 C   0  0  0  0  0  0  0  0  0  0  0  0
  -28.2432   -1.1500  -10.4079 O   0  0  0  0  0  0  0  0  0  0  0  0
  -25.5396   -2.7629  -10.5883 H   0  0  0  0  0  0  0  0  0  0  0  0
  -26.8984   -2.1139   -8.8216 O   0  0  0  0  0  0  0  0  0  0  0  0
  -27.9460   -2.5968   -7.9689 C   0  0  0  0  0  0  0  0  0  0  0  0
  -28.3337   -1.6249   -6.8802 C   0  0  0  0  0  0  0  0  0  0  0  0
  -27.9436   -0.2785   -6.9611 C   0  0  0  0  0  0  0  0  0  0  0  0
  -28.4015    0.6552   -6.0288 C   0  0  0  0  0  0  0  0  0  0  0  0
  -29.2517    0.2541   -5.0014 C   0  0  0  0  0  0  0  0  0  0  0  0
  -29.6338   -1.0828   -4.8993 C   0  0  0  0  0  0  0  0  0  0  0  0
  -29.1772   -2.0187   -5.8323 C   0  0  0  0  0  0  0  0  0  0  0  0
  -18.8734    2.1155  -15.7925 N   0  0  0  0  0  0  0  0  0  0  0  0
  -18.8936    2.6036  -16.6808 H   0  0  0  0  0  0  0  0  0  0  0  0
  -15.9499   -0.2619  -12.8355 C   0  0  0  0  0  0  0  0  0  0  0  0
  -16.1275    0.7989  -13.8759 C   0  0  0  0  0  0  0  0  0  0  0  0
  -17.3869    1.0223  -14.2821 N   0  0  0  0  0  0  0  0  0  0  0  0
  -17.5803    1.9262  -15.2562 C   0  0  0  0  0  0  0  0  0  0  0  0
  -16.5166    2.5796  -15.8275 C   0  0  0  0  0  0  0  0  0  0  0  0
  -15.2425    2.2847  -15.3674 C   0  0  0  0  0  0  0  0  0  0  0  0
  -15.0379    1.4091  -14.3718 N   0  0  0  0  0  0  0  0  0  0  0  0
  -14.1790    2.9475  -15.9712 N   0  0  0  0  0  0  0  0  0  0  0  0
  -14.1223    4.4104  -15.8807 C   0  0  0  0  0  0  0  0  0  0  0  0
  -13.1442    4.9068  -16.9824 C   0  0  0  0  0  0  0  0  0  0  0  0
  -11.7922    4.2941  -16.9257 N   0  0  0  0  0  0  0  0  0  0  0  0
  -11.9162    2.8196  -16.8731 C   0  0  0  0  0  0  0  0  0  0  0  0
  -12.8623    2.3254  -15.7578 C   0  0  0  0  0  0  0  0  0  0  0  0
  -11.3476    4.6028  -16.0622 H   0  0  0  0  0  0  0  0  0  0  0  0
 28 29  1  0  0  0
 29 30  1  0  0  0
 29 34  2  0  0  0
 30 31  2  0  0  0
 31 26  1  0  0  0
 31 32  1  0  0  0
 26  1  1  0  0  0
 26 27  1  0  0  0
  1  2  2  0  0  0
  1  5  1  0  0  0
  2  3  1  0  0  0
  3  7  1  0  0  0
  3  4  2  0  0  0
  7  8  1  0  0  0
  7 12  2  0  0  0
  8  9  2  0  0  0
  9 10  1  0  0  0
 10 13  1  0  0  0
 10 11  2  0  0  0
 13 14  1  0  0  0
 14 15  1  0  0  0
 14 17  1  0  0  0
 15 16  2  0  0  0
 15 18  1  0  0  0
 18 19  1  0  0  0
 19 20  1  0  0  0
 20 21  1  0  0  0
 20 25  2  0  0  0
 21 22  2  0  0  0
 22 23  1  0  0  0
 23 24  2  0  0  0
 24 25  1  0  0  0
 11 12  1  0  0  0
  4  5  1  0  0  0
  5  6  1  0  0  0
 32 33  2  0  0  0
 33 35  1  0  0  0
 33 34  1  0  0  0
 35 36  1  0  0  0
 35 40  1  0  0  0
 36 37  1  0  0  0
 37 38  1  0  0  0
 38 39  1  0  0  0
 38 41  1  0  0  0
 39 40  1  0  0  0
M  END
> <minimizedAffinity>
-10.76258

$$$$
