CHEMBL1241582


 24 26  0  0  0  0  0  0  0  0999 V2000
  -28.6703   -9.6068   -8.7734 N   0  0  0  0  0  0  0  0  0  0  0  0
  -28.5285   -8.3589   -8.2818 N   0  0  0  0  0  0  0  0  0  0  0  0
  -29.7057   -8.0948   -7.6805 C   0  0  0  0  0  0  0  0  0  0  0  0
  -30.6313   -9.1740   -7.8651 C   0  0  0  0  0  0  0  0  0  0  0  0
  -31.9572   -9.5061   -7.5480 C   0  0  0  0  0  0  0  0  0  0  0  0
  -32.8591   -8.6809   -6.8886 N   0  0  0  0  0  0  0  0  0  0  0  0
  -32.4329  -10.7158   -7.9132 N   0  0  0  0  0  0  0  0  0  0  0  0
  -31.6183  -11.5567   -8.5761 C   0  0  0  0  0  0  0  0  0  0  0  0
  -30.3485  -11.3473   -8.9499 N   0  0  0  0  0  0  0  0  0  0  0  0
  -29.9153  -10.1345   -8.5640 C   0  0  0  0  0  0  0  0  0  0  0  0
  -32.7645   -7.6954   -7.1006 H   0  0  0  0  0  0  0  0  0  0  0  0
  -33.7977   -9.0559   -6.9652 H   0  0  0  0  0  0  0  0  0  0  0  0
  -29.8737   -6.8295   -6.9547 C   0  0  0  0  0  0  0  0  0  0  0  0
  -29.6320   -5.5982   -7.5730 C   0  0  0  0  0  0  0  0  0  0  0  0
  -29.8054   -4.4019   -6.8755 C   0  0  0  0  0  0  0  0  0  0  0  0
  -30.2813   -4.4188   -5.5659 C   0  0  0  0  0  0  0  0  0  0  0  0
  -30.5708   -5.6325   -4.9300 C   0  0  0  0  0  0  0  0  0  0  0  0
  -30.3539   -6.8308   -5.6332 C   0  0  0  0  0  0  0  0  0  0  0  0
  -31.2189   -5.6737   -3.5690 C   0  0  0  0  0  0  0  0  0  0  0  0
  -30.7137   -6.7334   -2.7663 O   0  0  0  0  0  0  0  0  0  0  0  0
  -30.7587   -7.5388   -3.3083 H   0  0  0  0  0  0  0  0  0  0  0  0
  -27.0572   -9.4991  -10.6454 C   0  0  0  0  0  0  0  0  0  0  0  0
  -27.5408  -10.2699   -9.4169 C   0  0  0  0  0  0  0  0  0  0  0  0
  -26.3982  -10.4988   -8.4271 C   0  0  0  0  0  0  0  0  0  0  0  0
 22 23  1  0  0  0
 23 24  1  0  0  0
 23  1  1  0  0  0
  1  2  1  0  0  0
  1 10  1  0  0  0
  2  3  2  0  0  0
  3 13  1  0  0  0
  3  4  1  0  0  0
 13 14  1  0  0  0
 13 18  2  0  0  0
 14 15  2  0  0  0
 15 16  1  0  0  0
 16 17  2  0  0  0
 17 19  1  0  0  0
 17 18  1  0  0  0
 19 20  1  0  0  0
 20 21  1  0  0  0
  4  5  1  0  0  0
  4 10  2  0  0  0
  5  6  1  0  0  0
  5  7  2  0  0  0
  6 11  1  0  0  0
  6 12  1  0  0  0
  7  8  1  0  0  0
  8  9  2  0  0  0
  9 10  1  0  0  0
M  END
> <minimizedAffinity>
-7.47907

$$$$
