CHEMBL297156


 27 30  0  0  0  0  0  0  0  0999 V2000
  -29.2455   11.3843  -14.0431 C   0  0  0  0  0  0  0  0  0  0  0  0
  -30.3212   11.9166  -13.3547 C   0  0  0  0  0  0  0  0  0  0  0  0
  -31.1846   11.0154  -12.7623 C   0  0  0  0  0  0  0  0  0  0  0  0
  -31.0354    9.6823  -12.8607 N   0  0  0  0  0  0  0  0  0  0  0  0
  -29.9689    9.2626  -13.5409 C   0  0  0  0  0  0  0  0  0  0  0  0
  -29.0675   10.0556  -14.1212 N   0  0  0  0  0  0  0  0  0  0  0  0
  -32.2312   11.5070  -11.9393 N   0  0  0  0  0  0  0  0  0  0  0  0
  -32.0673   12.3133  -10.8314 C   0  0  0  0  0  0  0  0  0  0  0  0
  -33.3321   12.6581  -10.4333 C   0  0  0  0  0  0  0  0  0  0  0  0
  -34.2673   12.0322  -11.2050 N   0  0  0  0  0  0  0  0  0  0  0  0
  -33.6027   11.2824  -12.0768 C   0  0  0  0  0  0  0  0  0  0  0  0
  -34.2568   10.3061  -12.9756 C   0  0  0  0  0  0  0  0  0  0  0  0
  -34.3979   10.6102  -14.3367 C   0  0  0  0  0  0  0  0  0  0  0  0
  -34.9983    9.7038  -15.2176 C   0  0  0  0  0  0  0  0  0  0  0  0
  -35.4574    8.4742  -14.7542 C   0  0  0  0  0  0  0  0  0  0  0  0
  -35.3610    8.1688  -13.4029 C   0  0  0  0  0  0  0  0  0  0  0  0
  -34.8008    9.0947  -12.5187 C   0  0  0  0  0  0  0  0  0  0  0  0
  -28.3007   12.2807  -14.5971 N   0  0  0  0  0  0  0  0  0  0  0  0
  -28.6419   12.7178  -15.4431 H   0  0  0  0  0  0  0  0  0  0  0  0
  -23.8687   12.6381  -12.3603 C   0  0  0  0  0  0  0  0  0  0  0  0
  -24.6804   12.3162  -13.5803 C   0  0  0  0  0  0  0  0  0  0  0  0
  -24.0998   11.8013  -14.7382 C   0  0  0  0  0  0  0  0  0  0  0  0
  -24.8868   11.5043  -15.8583 C   0  0  0  0  0  0  0  0  0  0  0  0
  -24.2767   10.9478  -17.1064 C   0  0  0  0  0  0  0  0  0  0  0  0
  -26.2735   11.7092  -15.7890 C   0  0  0  0  0  0  0  0  0  0  0  0
  -26.8911   12.1681  -14.6165 C   0  0  0  0  0  0  0  0  0  0  0  0
  -26.0677   12.5170  -13.5433 C   0  0  0  0  0  0  0  0  0  0  0  0
 20 21  1  0  0  0
 21 22  1  0  0  0
 21 27  2  0  0  0
 22 23  2  0  0  0
 23 24  1  0  0  0
 23 25  1  0  0  0
 25 26  2  0  0  0
 26 18  1  0  0  0
 26 27  1  0  0  0
 18  1  1  0  0  0
 18 19  1  0  0  0
  1  2  1  0  0  0
  1  6  2  0  0  0
  2  3  2  0  0  0
  3  7  1  0  0  0
  3  4  1  0  0  0
  7  8  1  0  0  0
  7 11  1  0  0  0
  8  9  2  0  0  0
  9 10  1  0  0  0
 10 11  2  0  0  0
 11 12  1  0  0  0
 12 13  1  0  0  0
 12 17  2  0  0  0
 13 14  2  0  0  0
 14 15  1  0  0  0
 15 16  2  0  0  0
 16 17  1  0  0  0
  4  5  2  0  0  0
  5  6  1  0  0  0
M  END
> <minimizedAffinity>
-5.20526

$$$$
