CHEMBL238719


 29 31  0  0  0  0  0  0  0  0999 V2000
  -28.2815   -2.2962  -13.6228 C   0  0  0  0  0  0  0  0  0  0  0  0
  -26.8759   -1.8363  -13.7089 C   0  0  0  0  0  0  0  0  0  0  0  0
  -26.3495   -1.5695  -14.9095 N   0  0  0  0  0  0  0  0  0  0  0  0
  -25.0934   -1.0586  -14.6606 O   0  0  0  0  0  0  0  0  0  0  0  0
  -24.8587   -1.0292  -13.3188 C   0  0  0  0  0  0  0  0  0  0  0  0
  -25.9577   -1.5481  -12.6616 C   0  0  0  0  0  0  0  0  0  0  0  0
  -26.1067   -1.6362  -11.2272 C   0  0  0  0  0  0  0  0  0  0  0  0
  -25.1322   -1.5185  -10.4890 O   0  0  0  0  0  0  0  0  0  0  0  0
  -27.3916   -1.9454  -10.7861 N   0  0  0  0  0  0  0  0  0  0  0  0
  -27.9733   -2.4563  -11.4364 H   0  0  0  0  0  0  0  0  0  0  0  0
  -27.6766   -2.0925   -9.4101 C   0  0  0  0  0  0  0  0  0  0  0  0
  -28.0941   -3.3144   -8.8875 C   0  0  0  0  0  0  0  0  0  0  0  0
  -28.4619   -3.4262   -7.5425 C   0  0  0  0  0  0  0  0  0  0  0  0
  -28.4496   -2.3147   -6.6855 C   0  0  0  0  0  0  0  0  0  0  0  0
  -27.9783   -1.0996   -7.2232 C   0  0  0  0  0  0  0  0  0  0  0  0
  -27.5633   -0.9951   -8.5608 C   0  0  0  0  0  0  0  0  0  0  0  0
  -28.9426   -2.3960   -5.2277 C   0  0  0  0  0  0  0  0  0  0  0  0
  -27.8911   -2.9782   -4.2536 C   0  0  0  0  0  0  0  0  0  0  0  0
  -29.3130   -0.9885   -4.7165 C   0  0  0  0  0  0  0  0  0  0  0  0
  -30.1894   -3.3034   -5.1375 C   0  0  0  0  0  0  0  0  0  0  0  0
  -23.6664   -0.5613  -12.8811 N   0  0  0  0  0  0  0  0  0  0  0  0
  -23.6613    0.2094  -12.2147 H   0  0  0  0  0  0  0  0  0  0  0  0
  -22.4735   -0.6454  -13.7117 C   0  0  0  0  0  0  0  0  0  0  0  0
  -21.8843    0.6980  -14.0899 C   0  0  0  0  0  0  0  0  0  0  0  0
  -20.6722    0.8651  -14.7679 C   0  0  0  0  0  0  0  0  0  0  0  0
  -20.2455    2.1481  -15.0756 C   0  0  0  0  0  0  0  0  0  0  0  0
  -20.9314    3.2695  -14.7663 N   0  0  0  0  0  0  0  0  0  0  0  0
  -22.0963    3.0996  -14.1168 C   0  0  0  0  0  0  0  0  0  0  0  0
  -22.6074    1.8586  -13.7636 C   0  0  0  0  0  0  0  0  0  0  0  0
  1  2  1  0  0  0
  2  3  2  0  0  0
  2  6  1  0  0  0
  3  4  1  0  0  0
  4  5  1  0  0  0
  5 21  1  0  0  0
  5  6  2  0  0  0
 21 23  1  0  0  0
 21 22  1  0  0  0
 23 24  1  0  0  0
 24 25  1  0  0  0
 24 29  2  0  0  0
 25 26  2  0  0  0
 26 27  1  0  0  0
 27 28  2  0  0  0
 28 29  1  0  0  0
  6  7  1  0  0  0
  7  8  2  0  0  0
  7  9  1  0  0  0
  9 11  1  0  0  0
  9 10  1  0  0  0
 11 12  1  0  0  0
 11 16  2  0  0  0
 12 13  2  0  0  0
 13 14  1  0  0  0
 14 17  1  0  0  0
 14 15  2  0  0  0
 17 18  1  0  0  0
 17 19  1  0  0  0
 17 20  1  0  0  0
 15 16  1  0  0  0
M  END
> <minimizedAffinity>
-9.93873

$$$$
