CHEMBL272888


 46 50  0  0  0  0  0  0  0  0999 V2000
  -23.8033   -0.2303  -12.6846 C   0  0  0  0  0  0  0  0  0  0  0  0
  -22.9972   -0.4867  -11.7960 O   0  0  0  0  0  0  0  0  0  0  0  0
  -23.5703    0.6199  -13.7526 N   0  0  0  0  0  0  0  0  0  0  0  0
  -24.3394    0.8102  -14.3783 H   0  0  0  0  0  0  0  0  0  0  0  0
  -25.3045   -1.6327  -15.0357 C   0  0  0  0  0  0  0  0  0  0  0  0
  -25.8598   -1.4423  -13.6515 C   0  0  0  0  0  0  0  0  0  0  0  0
  -27.1474   -1.9435  -13.4048 C   0  0  0  0  0  0  0  0  0  0  0  0
  -27.7165   -1.9058  -12.1282 C   0  0  0  0  0  0  0  0  0  0  0  0
  -27.0242   -1.3594  -11.0529 C   0  0  0  0  0  0  0  0  0  0  0  0
  -25.7572   -0.8117  -11.2955 C   0  0  0  0  0  0  0  0  0  0  0  0
  -25.1719   -0.8313  -12.5859 C   0  0  0  0  0  0  0  0  0  0  0  0
  -27.5243   -1.3351   -9.7252 N   0  0  0  0  0  0  0  0  0  0  0  0
  -27.5553   -2.4043   -8.8361 C   0  0  0  0  0  0  0  0  0  0  0  0
  -27.1754   -3.5457   -9.0663 O   0  0  0  0  0  0  0  0  0  0  0  0
  -27.9146   -0.4549   -9.4160 H   0  0  0  0  0  0  0  0  0  0  0  0
  -28.1316   -2.1408   -7.4848 C   0  0  0  0  0  0  0  0  0  0  0  0
  -28.6074   -3.1527   -6.6441 C   0  0  0  0  0  0  0  0  0  0  0  0
  -29.1837   -2.8215   -5.4117 C   0  0  0  0  0  0  0  0  0  0  0  0
  -29.2801   -1.4858   -5.0108 C   0  0  0  0  0  0  0  0  0  0  0  0
  -28.8048   -0.4583   -5.8365 C   0  0  0  0  0  0  0  0  0  0  0  0
  -28.2440   -0.7991   -7.0787 C   0  0  0  0  0  0  0  0  0  0  0  0
  -28.8728    0.9898   -5.4115 C   0  0  0  0  0  0  0  0  0  0  0  0
  -30.0907    1.3548   -4.9221 F   0  0  0  0  0  0  0  0  0  0  0  0
  -27.9766    1.2789   -4.4273 F   0  0  0  0  0  0  0  0  0  0  0  0
  -28.6054    1.8522   -6.4293 F   0  0  0  0  0  0  0  0  0  0  0  0
  -22.3718    1.3241  -14.0121 C   0  0  0  0  0  0  0  0  0  0  0  0
  -21.1739    0.7659  -14.3890 C   0  0  0  0  0  0  0  0  0  0  0  0
  -20.0474    1.4823  -14.5903 N   0  0  0  0  0  0  0  0  0  0  0  0
  -20.0951    2.8149  -14.4163 C   0  0  0  0  0  0  0  0  0  0  0  0
  -21.2137    3.4616  -14.0565 N   0  0  0  0  0  0  0  0  0  0  0  0
  -22.3215    2.7006  -13.8746 C   0  0  0  0  0  0  0  0  0  0  0  0
  -18.9330    3.5670  -14.5864 N   0  0  0  0  0  0  0  0  0  0  0  0
  -19.1480    4.5493  -14.6631 H   0  0  0  0  0  0  0  0  0  0  0  0
  -17.7641    3.1482  -15.2428 C   0  0  0  0  0  0  0  0  0  0  0  0
  -16.9791    4.0374  -15.9768 C   0  0  0  0  0  0  0  0  0  0  0  0
  -15.8744    3.5903  -16.6975 C   0  0  0  0  0  0  0  0  0  0  0  0
  -15.5044    2.2405  -16.7241 C   0  0  0  0  0  0  0  0  0  0  0  0
  -16.2561    1.3639  -15.9331 C   0  0  0  0  0  0  0  0  0  0  0  0
  -17.3662    1.8102  -15.1954 C   0  0  0  0  0  0  0  0  0  0  0  0
  -14.4106    1.8616  -17.4782 N   0  0  0  0  0  0  0  0  0  0  0  0
  -13.1737    2.6483  -17.5186 C   0  0  0  0  0  0  0  0  0  0  0  0
  -12.4844    2.4116  -18.8875 C   0  0  0  0  0  0  0  0  0  0  0  0
  -12.2155    0.9783  -19.1644 N   0  0  0  0  0  0  0  0  0  0  0  0
  -11.6431    0.8108  -20.4974 C   0  0  0  0  0  0  0  0  0  0  0  0
  -13.4798    0.2118  -19.0508 C   0  0  0  0  0  0  0  0  0  0  0  0
  -14.1790    0.4180  -17.6894 C   0  0  0  0  0  0  0  0  0  0  0  0
  5  6  1  0  0  0
  6  7  1  0  0  0
  6 11  2  0  0  0
  7  8  2  0  0  0
  8  9  1  0  0  0
  9 12  1  0  0  0
  9 10  2  0  0  0
 12 13  1  0  0  0
 12 15  1  0  0  0
 13 14  2  0  0  0
 13 16  1  0  0  0
 16 17  1  0  0  0
 16 21  2  0  0  0
 17 18  2  0  0  0
 18 19  1  0  0  0
 19 20  2  0  0  0
 20 22  1  0  0  0
 20 21  1  0  0  0
 22 23  1  0  0  0
 22 24  1  0  0  0
 22 25  1  0  0  0
 10 11  1  0  0  0
 11  1  1  0  0  0
  1  2  2  0  0  0
  1  3  1  0  0  0
  3 26  1  0  0  0
  3  4  1  0  0  0
 26 27  1  0  0  0
 26 31  2  0  0  0
 27 28  2  0  0  0
 28 29  1  0  0  0
 29 32  1  0  0  0
 29 30  2  0  0  0
 32 34  1  0  0  0
 32 33  1  0  0  0
 34 35  1  0  0  0
 34 39  2  0  0  0
 35 36  2  0  0  0
 36 37  1  0  0  0
 37 40  1  0  0  0
 37 38  2  0  0  0
 40 41  1  0  0  0
 40 46  1  0  0  0
 41 42  1  0  0  0
 42 43  1  0  0  0
 43 44  1  0  0  0
 43 45  1  0  0  0
 45 46  1  0  0  0
 38 39  1  0  0  0
 30 31  1  0  0  0
M  END
> <minimizedAffinity>
-12.60889

$$$$
