CHEMBL4448494


 38 42  0  0  0  0  0  0  0  0999 V2000
  -27.1808   -1.7669  -10.8004 C   0  0  0  0  0  0  0  0  0  0  0  0
  -25.9608   -1.1792  -10.7584 N   0  0  0  0  0  0  0  0  0  0  0  0
  -25.4350   -0.7266  -11.8900 C   0  0  0  0  0  0  0  0  0  0  0  0
  -26.0603   -0.8348  -13.0841 N   0  0  0  0  0  0  0  0  0  0  0  0
  -27.2678   -1.4385  -13.1098 C   0  0  0  0  0  0  0  0  0  0  0  0
  -27.8816   -1.9187  -11.9823 C   0  0  0  0  0  0  0  0  0  0  0  0
  -29.0831   -2.5050  -12.0488 F   0  0  0  0  0  0  0  0  0  0  0  0
  -29.2578   -1.8869   -3.6486 C   0  0  0  0  0  0  0  0  0  0  0  0
  -28.8567   -2.0912   -5.0621 C   0  0  0  0  0  0  0  0  0  0  0  0
  -28.6957   -3.2852   -5.5873 N   0  0  0  0  0  0  0  0  0  0  0  0
  -28.3486   -3.0906   -6.9034 C   0  0  0  0  0  0  0  0  0  0  0  0
  -28.0767   -4.0080   -7.9056 C   0  0  0  0  0  0  0  0  0  0  0  0
  -28.1306   -5.3290   -7.6878 F   0  0  0  0  0  0  0  0  0  0  0  0
  -27.7344   -3.5525   -9.1742 C   0  0  0  0  0  0  0  0  0  0  0  0
  -27.6426   -2.1772   -9.4690 C   0  0  0  0  0  0  0  0  0  0  0  0
  -27.9278   -1.2416   -8.4573 C   0  0  0  0  0  0  0  0  0  0  0  0
  -28.2696   -1.7286   -7.1856 C   0  0  0  0  0  0  0  0  0  0  0  0
  -28.6134   -1.0972   -5.9957 N   0  0  0  0  0  0  0  0  0  0  0  0
  -28.7389    0.3520   -5.8646 C   0  0  0  0  0  0  0  0  0  0  0  0
  -30.2090    0.7661   -5.7999 C   0  0  0  0  0  0  0  0  0  0  0  0
  -27.9333    1.0081   -4.7428 C   0  0  0  0  0  0  0  0  0  0  0  0
  -24.2196   -0.0616  -11.8804 N   0  0  0  0  0  0  0  0  0  0  0  0
  -24.4345    0.9036  -11.6348 H   0  0  0  0  0  0  0  0  0  0  0  0
  -23.2311    0.0183  -12.8465 C   0  0  0  0  0  0  0  0  0  0  0  0
  -22.5933   -0.9768  -13.5734 C   0  0  0  0  0  0  0  0  0  0  0  0
  -21.4859   -0.6391  -14.4298 C   0  0  0  0  0  0  0  0  0  0  0  0
  -21.0598    0.6974  -14.5585 C   0  0  0  0  0  0  0  0  0  0  0  0
  -21.8726    1.5874  -13.8821 C   0  0  0  0  0  0  0  0  0  0  0  0
  -22.8686    1.2827  -13.0201 N   0  0  0  0  0  0  0  0  0  0  0  0
  -21.8002    3.0448  -14.0829 C   0  0  0  0  0  0  0  0  0  0  0  0
  -20.5918    3.5785  -14.7842 C   0  0  0  0  0  0  0  0  0  0  0  0
  -19.4754    2.6394  -14.8791 N   0  0  0  0  0  0  0  0  0  0  0  0
  -19.8789    1.2854  -15.3822 C   0  0  0  0  0  0  0  0  0  0  0  0
  -18.2702    3.3566  -15.3833 C   0  0  0  0  0  0  0  0  0  0  0  0
  -17.2169    2.2985  -15.9452 C   0  0  0  0  0  0  0  0  0  0  0  0
  -16.0499    1.8690  -15.1234 N   0  0  0  0  0  0  0  0  0  0  0  0
  -16.4137    0.8557  -14.1150 C   0  0  0  0  0  0  0  0  0  0  0  0
  -15.0528    1.2341  -16.0126 C   0  0  0  0  0  0  0  0  0  0  0  0
  8  9  1  0  0  0
  9 10  2  0  0  0
  9 18  1  0  0  0
 10 11  1  0  0  0
 11 12  1  0  0  0
 11 17  2  0  0  0
 12 13  1  0  0  0
 12 14  2  0  0  0
 14 15  1  0  0  0
 15  1  1  0  0  0
 15 16  2  0  0  0
  1  2  1  0  0  0
  1  6  2  0  0  0
  2  3  2  0  0  0
  3 22  1  0  0  0
  3  4  1  0  0  0
 22 24  1  0  0  0
 22 23  1  0  0  0
 24 25  1  0  0  0
 24 29  2  0  0  0
 25 26  2  0  0  0
 26 27  1  0  0  0
 27 28  2  0  0  0
 27 33  1  0  0  0
 28 29  1  0  0  0
 28 30  1  0  0  0
 30 31  1  0  0  0
 31 32  1  0  0  0
 32 34  1  0  0  0
 32 33  1  0  0  0
 34 35  1  0  0  0
 35 36  1  0  0  0
 36 37  1  0  0  0
 36 38  1  0  0  0
  4  5  2  0  0  0
  5  6  1  0  0  0
  6  7  1  0  0  0
 16 17  1  0  0  0
 17 18  1  0  0  0
 18 19  1  0  0  0
 19 20  1  0  0  0
 19 21  1  0  0  0
M  END
> <minimizedAffinity>
-8.66226

$$$$
