CHEMBL491045


 17 19  0  0  0  0  0  0  0  0999 V2000
  -29.8243   -4.8686   -7.6205 O   0  0  0  0  0  0  0  0  0  0  0  0
  -29.1439   -3.8618   -7.5823 C   0  0  0  0  0  0  0  0  0  0  0  0
  -28.4584   -3.3382   -8.6544 N   0  0  0  0  0  0  0  0  0  0  0  0
  -27.8321   -2.0798   -8.3633 C   0  0  0  0  0  0  0  0  0  0  0  0
  -28.1585   -1.8845   -6.9210 C   0  0  0  0  0  0  0  0  0  0  0  0
  -27.7876   -0.8351   -6.0993 C   0  0  0  0  0  0  0  0  0  0  0  0
  -28.2037   -0.8703   -4.7704 C   0  0  0  0  0  0  0  0  0  0  0  0
  -28.9704   -1.9473   -4.2843 C   0  0  0  0  0  0  0  0  0  0  0  0
  -29.3555   -3.0240   -5.1079 C   0  0  0  0  0  0  0  0  0  0  0  0
  -28.9351   -2.9515   -6.4362 C   0  0  0  0  0  0  0  0  0  0  0  0
  -28.4852   -3.7893   -9.5591 H   0  0  0  0  0  0  0  0  0  0  0  0
  -30.1383   -4.1256   -4.5292 C   0  0  0  0  0  0  0  0  0  0  0  0
  -31.3893   -4.1253   -3.9254 C   0  0  0  0  0  0  0  0  0  0  0  0
  -31.6975   -5.4478   -3.5230 C   0  0  0  0  0  0  0  0  0  0  0  0
  -30.6391   -6.2388   -3.8944 C   0  0  0  0  0  0  0  0  0  0  0  0
  -29.7049   -5.4355   -4.4912 N   0  0  0  0  0  0  0  0  0  0  0  0
  -28.7849   -5.7437   -4.7910 H   0  0  0  0  0  0  0  0  0  0  0  0
  1  2  2  0  0  0
  2  3  1  0  0  0
  2 10  1  0  0  0
  3  4  1  0  0  0
  3 11  1  0  0  0
  4  5  1  0  0  0
  5  6  1  0  0  0
  5 10  2  0  0  0
  6  7  2  0  0  0
  7  8  1  0  0  0
  8  9  2  0  0  0
  9 12  1  0  0  0
  9 10  1  0  0  0
 12 13  2  0  0  0
 12 16  1  0  0  0
 13 14  1  0  0  0
 14 15  2  0  0  0
 15 16  1  0  0  0
 16 17  1  0  0  0
M  END
> <minimizedAffinity>
-6.97037

$$$$
