CHEMBL3621296


 32 34  0  0  0  0  0  0  0  0999 V2000
  -29.6413   -7.7273   -6.3273 C   0  0  0  0  0  0  0  0  0  0  0  0
  -29.5412   -8.3254   -5.0572 C   0  0  0  0  0  0  0  0  0  0  0  0
  -29.2375   -7.5572   -3.9349 C   0  0  0  0  0  0  0  0  0  0  0  0
  -29.1135   -6.1953   -4.1151 C   0  0  0  0  0  0  0  0  0  0  0  0
  -29.2951   -5.5690   -5.3528 C   0  0  0  0  0  0  0  0  0  0  0  0
  -29.5393   -6.3333   -6.4819 C   0  0  0  0  0  0  0  0  0  0  0  0
  -29.0989   -4.1287   -5.1099 C   0  0  0  0  0  0  0  0  0  0  0  0
  -29.2528   -3.1484   -6.0130 C   0  0  0  0  0  0  0  0  0  0  0  0
  -28.7105   -3.9828   -3.6548 C   0  0  0  0  0  0  0  0  0  0  0  0
  -28.3959   -2.9867   -3.0325 O   0  0  0  0  0  0  0  0  0  0  0  0
  -28.7720   -5.2697   -3.1391 N   0  0  0  0  0  0  0  0  0  0  0  0
  -28.5400   -5.4716   -2.1802 H   0  0  0  0  0  0  0  0  0  0  0  0
  -29.0116   -1.7867   -5.7200 C   0  0  0  0  0  0  0  0  0  0  0  0
  -29.8086   -0.7046   -5.4040 C   0  0  0  0  0  0  0  0  0  0  0  0
  -28.9587    0.4173   -5.2256 C   0  0  0  0  0  0  0  0  0  0  0  0
  -27.6675   -0.0091   -5.4387 C   0  0  0  0  0  0  0  0  0  0  0  0
  -27.7093   -1.3475   -5.7327 N   0  0  0  0  0  0  0  0  0  0  0  0
  -26.9013   -1.9300   -5.9060 H   0  0  0  0  0  0  0  0  0  0  0  0
  -31.0769   -9.0185   -7.8193 C   0  0  0  0  0  0  0  0  0  0  0  0
  -32.1348   -8.7145   -7.2771 O   0  0  0  0  0  0  0  0  0  0  0  0
  -29.8200   -8.5845   -7.4293 N   0  0  0  0  0  0  0  0  0  0  0  0
  -29.1332   -8.5252   -8.1708 H   0  0  0  0  0  0  0  0  0  0  0  0
  -31.0463   -9.9217   -9.0361 C   0  0  0  0  0  0  0  0  0  0  0  0
  -29.7775  -10.7693   -9.0785 C   0  0  0  0  0  0  0  0  0  0  0  0
  -29.0134  -10.5954  -10.3944 C   0  0  0  0  0  0  0  0  0  0  0  0
  -27.5098  -10.5139  -10.1566 C   0  0  0  0  0  0  0  0  0  0  0  0
  -26.3926   -8.7399  -11.3921 O   0  0  0  0  0  0  0  0  0  0  0  0
  -26.9733   -9.1157  -10.3776 C   0  0  0  0  0  0  0  0  0  0  0  0
  -27.1940   -8.2787   -9.3135 N   0  0  0  0  0  0  0  0  0  0  0  0
  -26.7407   -6.9495   -9.4473 O   0  0  0  0  0  0  0  0  0  0  0  0
  -27.7056   -8.5166   -8.4719 H   0  0  0  0  0  0  0  0  0  0  0  0
  -26.3325   -6.9576  -10.3419 H   0  0  0  0  0  0  0  0  0  0  0  0
 27 28  2  0  0  0
 28 26  1  0  0  0
 28 29  1  0  0  0
 26 25  1  0  0  0
 25 24  1  0  0  0
 24 23  1  0  0  0
 23 19  1  0  0  0
 19 20  2  0  0  0
 19 21  1  0  0  0
 21  1  1  0  0  0
 21 22  1  0  0  0
  1  2  1  0  0  0
  1  6  2  0  0  0
  2  3  2  0  0  0
  3  4  1  0  0  0
  4  5  2  0  0  0
  4 11  1  0  0  0
  5  6  1  0  0  0
  5  7  1  0  0  0
  7  8  2  0  0  0
  7  9  1  0  0  0
  8 13  1  0  0  0
 13 14  2  0  0  0
 13 17  1  0  0  0
 14 15  1  0  0  0
 15 16  2  0  0  0
 16 17  1  0  0  0
 17 18  1  0  0  0
  9 10  2  0  0  0
  9 11  1  0  0  0
 11 12  1  0  0  0
 29 30  1  0  0  0
 29 31  1  0  0  0
 30 32  1  0  0  0
M  END
> <minimizedAffinity>
-8.75590

$$$$
