CHEMBL4452256


 27 30  0  0  0  0  0  0  0  0999 V2000
  -22.7033    0.3897  -13.7697 C   0  0  0  0  0  0  0  0  0  0  0  0
  -23.6703   -0.1662  -14.6250 C   0  0  0  0  0  0  0  0  0  0  0  0
  -24.6529   -1.0429  -14.1471 C   0  0  0  0  0  0  0  0  0  0  0  0
  -24.6959   -1.3948  -12.7935 C   0  0  0  0  0  0  0  0  0  0  0  0
  -23.7539   -0.8349  -11.9265 C   0  0  0  0  0  0  0  0  0  0  0  0
  -22.7871    0.0533  -12.4060 C   0  0  0  0  0  0  0  0  0  0  0  0
  -19.5619    2.9260  -15.0879 C   0  0  0  0  0  0  0  0  0  0  0  0
  -19.4012    1.5615  -15.2638 C   0  0  0  0  0  0  0  0  0  0  0  0
  -20.4377    0.7120  -14.8644 C   0  0  0  0  0  0  0  0  0  0  0  0
  -21.6030    1.2334  -14.2851 C   0  0  0  0  0  0  0  0  0  0  0  0
  -21.6451    2.6266  -14.1757 C   0  0  0  0  0  0  0  0  0  0  0  0
  -20.6702    3.4778  -14.5674 N   0  0  0  0  0  0  0  0  0  0  0  0
  -17.3859    2.9847  -15.9246 C   0  0  0  0  0  0  0  0  0  0  0  0
  -18.5041    3.7338  -15.4498 O   0  0  0  0  0  0  0  0  0  0  0  0
  -25.7243   -2.3621  -12.2712 C   0  0  0  0  0  0  0  0  0  0  0  0
  -26.5247   -1.7921  -11.2021 N   0  0  0  0  0  0  0  0  0  0  0  0
  -26.3770   -1.9911   -9.8586 C   0  0  0  0  0  0  0  0  0  0  0  0
  -27.5336   -1.4727   -9.3181 C   0  0  0  0  0  0  0  0  0  0  0  0
  -28.3079   -0.9565  -10.3251 N   0  0  0  0  0  0  0  0  0  0  0  0
  -27.6766   -1.1510  -11.4767 N   0  0  0  0  0  0  0  0  0  0  0  0
  -27.9364   -1.5365   -7.9272 C   0  0  0  0  0  0  0  0  0  0  0  0
  -28.3488   -2.7616   -7.3809 C   0  0  0  0  0  0  0  0  0  0  0  0
  -28.6899   -2.8622   -6.0295 C   0  0  0  0  0  0  0  0  0  0  0  0
  -28.6331   -1.7347   -5.2126 C   0  0  0  0  0  0  0  0  0  0  0  0
  -28.2404   -0.5117   -5.7526 C   0  0  0  0  0  0  0  0  0  0  0  0
  -28.1731    0.8826   -4.7452 Cl  0  0  0  0  0  0  0  0  0  0  0  0
  -27.8927   -0.4060   -7.1001 C   0  0  0  0  0  0  0  0  0  0  0  0
 13 14  1  0  0  0
 14  7  1  0  0  0
  7  8  1  0  0  0
  7 12  2  0  0  0
  8  9  2  0  0  0
  9 10  1  0  0  0
 10  1  1  0  0  0
 10 11  2  0  0  0
  1  2  1  0  0  0
  1  6  2  0  0  0
  2  3  2  0  0  0
  3  4  1  0  0  0
  4 15  1  0  0  0
  4  5  2  0  0  0
 15 16  1  0  0  0
 16 17  1  0  0  0
 16 20  1  0  0  0
 17 18  2  0  0  0
 18 21  1  0  0  0
 18 19  1  0  0  0
 21 22  1  0  0  0
 21 27  2  0  0  0
 22 23  2  0  0  0
 23 24  1  0  0  0
 24 25  2  0  0  0
 25 26  1  0  0  0
 25 27  1  0  0  0
 19 20  2  0  0  0
  5  6  1  0  0  0
 11 12  1  0  0  0
M  END
> <minimizedAffinity>
-10.19544

$$$$
