CHEMBL3956164


 35 39  0  0  0  0  0  0  0  0999 V2000
  -29.2498   -4.5734   -6.5512 C   0  0  0  0  0  0  0  0  0  0  0  0
  -28.4727   -5.1842   -7.4958 C   0  0  0  0  0  0  0  0  0  0  0  0
  -27.9941   -4.3917   -8.4897 C   0  0  0  0  0  0  0  0  0  0  0  0
  -28.0583   -3.0609   -8.5463 C   0  0  0  0  0  0  0  0  0  0  0  0
  -26.8910   -2.7025   -8.8528 N   0  0  0  0  0  0  0  0  0  0  0  0
  -26.8013   -2.5891  -10.1431 C   0  0  0  0  0  0  0  0  0  0  0  0
  -27.2663   -1.4562  -10.5634 C   0  0  0  0  0  0  0  0  0  0  0  0
  -28.3934   -1.0148   -9.4186 N   0  0  0  0  0  0  0  0  0  0  0  0
  -28.8720   -2.1374   -8.2389 C   0  0  0  0  0  0  0  0  0  0  0  0
  -29.5236   -3.0481   -6.8234 C   0  0  0  0  0  0  0  0  0  0  0  0
  -26.3073   -1.0976  -12.0445 C   0  0  0  0  0  0  0  0  0  0  0  0
  -26.3801   -1.5816  -13.3285 C   0  0  0  0  0  0  0  0  0  0  0  0
  -25.3748   -1.4050  -14.2255 N   0  0  0  0  0  0  0  0  0  0  0  0
  -24.4391   -0.6887  -13.5800 N   0  0  0  0  0  0  0  0  0  0  0  0
  -24.8922   -0.5150  -12.1907 C   0  0  0  0  0  0  0  0  0  0  0  0
  -23.1773   -0.2862  -14.3252 C   0  0  0  0  0  0  0  0  0  0  0  0
  -22.3546    0.7614  -13.5317 C   0  0  0  0  0  0  0  0  0  0  0  0
  -21.1186    1.2484  -14.1800 N   0  0  0  0  0  0  0  0  0  0  0  0
  -20.4511    0.4932  -14.3117 H   0  0  0  0  0  0  0  0  0  0  0  0
  -20.6596    1.9137  -13.5502 H   0  0  0  0  0  0  0  0  0  0  0  0
  -29.7361   -5.4516   -5.4462 N   0  0  0  0  0  0  0  0  0  0  0  0
  -30.1302   -9.1804   -6.3241 C   0  0  0  0  0  0  0  0  0  0  0  0
  -29.5146   -9.7231   -5.2396 C   0  0  0  0  0  0  0  0  0  0  0  0
  -29.0186   -8.9013   -4.2382 C   0  0  0  0  0  0  0  0  0  0  0  0
  -29.1782   -7.5108   -4.3083 C   0  0  0  0  0  0  0  0  0  0  0  0
  -29.7532   -6.8653   -5.4123 C   0  0  0  0  0  0  0  0  0  0  0  0
  -30.3169   -7.7793   -6.3580 C   0  0  0  0  0  0  0  0  0  0  0  0
  -31.7907   -9.4487   -7.9831 C   0  0  0  0  0  0  0  0  0  0  0  0
  -30.5410   -9.8589   -7.4401 O   0  0  0  0  0  0  0  0  0  0  0  0
  -28.3081   -9.3951   -3.1745 O   0  0  0  0  0  0  0  0  0  0  0  0
  -27.0143   -9.8903   -3.5237 C   0  0  0  0  0  0  0  0  0  0  0  0
  -30.7892   -4.6357   -4.6161 C   0  0  0  0  0  0  0  0  0  0  0  0
  -30.2158   -4.0040   -3.3759 C   0  0  0  0  0  0  0  0  0  0  0  0
  -30.1304   -2.4680   -3.1679 C   0  0  0  0  0  0  0  0  0  0  0  0
  -28.8856   -3.3047   -3.1141 C   0  0  0  0  0  0  0  0  0  0  0  0
 28 29  1  0  0  0
 29 22  1  0  0  0
 22 23  1  0  0  0
 22 27  2  0  0  0
 23 24  2  0  0  0
 24 30  1  0  0  0
 24 25  1  0  0  0
 30 31  1  0  0  0
 25 26  2  0  0  0
 26 21  1  0  0  0
 26 27  1  0  0  0
 21 32  1  0  0  0
 21  1  1  0  0  0
 32 33  1  0  0  0
 33 34  1  0  0  0
 33 35  1  0  0  0
 34 35  1  0  0  0
  1  2  1  0  0  0
  1 10  2  0  0  0
  2  3  2  0  0  0
  3  4  1  0  0  0
  4  5  1  0  0  0
  4  9  2  0  0  0
  5  6  2  0  0  0
  6  7  1  0  0  0
  7 11  1  0  0  0
  7  8  2  0  0  0
 11 12  1  0  0  0
 11 15  2  0  0  0
 12 13  2  0  0  0
 13 14  1  0  0  0
 14 16  1  0  0  0
 14 15  1  0  0  0
 16 17  1  0  0  0
 17 18  1  0  0  0
 18 19  1  0  0  0
 18 20  1  0  0  0
  8  9  1  0  0  0
  9 10  1  0  0  0
M  END
> <minimizedAffinity>
-7.18229

$$$$
