CHEMBL3973820


 41 45  0  0  0  0  0  0  0  0999 V2000
  -28.3483   11.4797  -13.7803 C   0  0  0  0  0  0  0  0  0  0  0  0
  -29.0239   10.7363  -14.7556 C   0  0  0  0  0  0  0  0  0  0  0  0
  -28.2985   10.0753  -15.7191 C   0  0  0  0  0  0  0  0  0  0  0  0
  -26.9633   10.3075  -15.9077 C   0  0  0  0  0  0  0  0  0  0  0  0
  -26.3806    9.4612  -16.7639 N   0  0  0  0  0  0  0  0  0  0  0  0
  -25.1666    9.7994  -17.2069 C   0  0  0  0  0  0  0  0  0  0  0  0
  -24.6056   11.0286  -16.9062 C   0  0  0  0  0  0  0  0  0  0  0  0
  -25.1096   11.7938  -15.8720 N   0  0  0  0  0  0  0  0  0  0  0  0
  -26.3163   11.3907  -15.2842 C   0  0  0  0  0  0  0  0  0  0  0  0
  -27.0246   11.8962  -14.1102 C   0  0  0  0  0  0  0  0  0  0  0  0
  -23.7587   11.5827  -17.9628 C   0  0  0  0  0  0  0  0  0  0  0  0
  -24.0040   12.2211  -19.1978 C   0  0  0  0  0  0  0  0  0  0  0  0
  -22.8821   12.6530  -19.7996 N   0  0  0  0  0  0  0  0  0  0  0  0
  -21.9041   12.2823  -18.9523 N   0  0  0  0  0  0  0  0  0  0  0  0
  -22.3915   11.7734  -17.7826 C   0  0  0  0  0  0  0  0  0  0  0  0
  -20.5055   12.3605  -19.3460 C   0  0  0  0  0  0  0  0  0  0  0  0
  -20.0993   11.2365  -20.3062 C   0  0  0  0  0  0  0  0  0  0  0  0
  -18.6276   11.2661  -20.7457 C   0  0  0  0  0  0  0  0  0  0  0  0
  -17.9061    9.9959  -20.6528 N   0  0  0  0  0  0  0  0  0  0  0  0
  -18.2477    9.3559  -21.3732 H   0  0  0  0  0  0  0  0  0  0  0  0
  -16.4493   10.1440  -20.6918 C   0  0  0  0  0  0  0  0  0  0  0  0
  -15.7748    8.9181  -20.0920 C   0  0  0  0  0  0  0  0  0  0  0  0
  -14.9043    8.0116  -21.3597 S   0  0  0  0  0  0  0  0  0  0  0  0
  -13.8931    9.2595  -22.1187 C   0  0  0  0  0  0  0  0  0  0  0  0
  -14.0147    7.0701  -20.7078 O   0  0  0  0  0  0  0  0  0  0  0  0
  -15.8671    7.5659  -22.3469 O   0  0  0  0  0  0  0  0  0  0  0  0
  -29.0446   11.6534  -12.4845 N   0  0  0  0  0  0  0  0  0  0  0  0
  -32.5807   12.3564  -13.8103 C   0  0  0  0  0  0  0  0  0  0  0  0
  -33.3440   12.0846  -12.6784 C   0  0  0  0  0  0  0  0  0  0  0  0
  -32.7022   11.8829  -11.4588 C   0  0  0  0  0  0  0  0  0  0  0  0
  -31.2956   11.8996  -11.3957 C   0  0  0  0  0  0  0  0  0  0  0  0
  -30.4817   12.0312  -12.5524 C   0  0  0  0  0  0  0  0  0  0  0  0
  -31.1712   12.3743  -13.7288 C   0  0  0  0  0  0  0  0  0  0  0  0
  -34.4802   12.5098  -15.2800 C   0  0  0  0  0  0  0  0  0  0  0  0
  -33.0732   12.5796  -15.0696 O   0  0  0  0  0  0  0  0  0  0  0  0
  -33.3383   11.5654  -10.2849 O   0  0  0  0  0  0  0  0  0  0  0  0
  -34.3369   12.4760   -9.8330 C   0  0  0  0  0  0  0  0  0  0  0  0
  -28.2533   12.6589  -11.6915 C   0  0  0  0  0  0  0  0  0  0  0  0
  -27.9803   12.4033  -10.2147 C   0  0  0  0  0  0  0  0  0  0  0  0
  -28.5815   11.2002   -9.5251 C   0  0  0  0  0  0  0  0  0  0  0  0
  -28.9182   12.5769   -9.0363 C   0  0  0  0  0  0  0  0  0  0  0  0
 34 35  1  0  0  0
 35 28  1  0  0  0
 28 29  1  0  0  0
 28 33  2  0  0  0
 29 30  2  0  0  0
 30 36  1  0  0  0
 30 31  1  0  0  0
 36 37  1  0  0  0
 31 32  2  0  0  0
 32 27  1  0  0  0
 32 33  1  0  0  0
 27 38  1  0  0  0
 27  1  1  0  0  0
 38 39  1  0  0  0
 39 40  1  0  0  0
 39 41  1  0  0  0
 40 41  1  0  0  0
  1  2  1  0  0  0
  1 10  2  0  0  0
  2  3  2  0  0  0
  3  4  1  0  0  0
  4  5  1  0  0  0
  4  9  2  0  0  0
  5  6  2  0  0  0
  6  7  1  0  0  0
  7 11  1  0  0  0
  7  8  2  0  0  0
 11 12  1  0  0  0
 11 15  2  0  0  0
 12 13  2  0  0  0
 13 14  1  0  0  0
 14 16  1  0  0  0
 14 15  1  0  0  0
 16 17  1  0  0  0
 17 18  1  0  0  0
 18 19  1  0  0  0
 19 21  1  0  0  0
 19 20  1  0  0  0
 21 22  1  0  0  0
 22 23  1  0  0  0
 23 24  1  0  0  0
 23 25  2  0  0  0
 23 26  2  0  0  0
  8  9  1  0  0  0
  9 10  1  0  0  0
M  END
> <minimizedAffinity>
-4.38605

$$$$
