CHEMBL474208


 41 45  0  0  0  0  0  0  0  0999 V2000
  -14.9550   -0.5908  -13.2223 C   0  0  0  0  0  0  0  0  0  0  0  0
  -14.0002    0.1634  -13.0603 O   0  0  0  0  0  0  0  0  0  0  0  0
  -15.9907   -0.3616  -14.1108 N   0  0  0  0  0  0  0  0  0  0  0  0
  -16.6591   -1.1156  -14.2103 H   0  0  0  0  0  0  0  0  0  0  0  0
  -16.1997    0.7649  -14.9293 C   0  0  0  0  0  0  0  0  0  0  0  0
  -15.2460    1.2923  -15.7924 C   0  0  0  0  0  0  0  0  0  0  0  0
  -15.5376    2.4360  -16.5377 C   0  0  0  0  0  0  0  0  0  0  0  0
  -16.7861    3.0560  -16.4278 C   0  0  0  0  0  0  0  0  0  0  0  0
  -17.7670    2.5451  -15.5721 C   0  0  0  0  0  0  0  0  0  0  0  0
  -17.4453    1.3967  -14.8309 C   0  0  0  0  0  0  0  0  0  0  0  0
  -18.9850    3.2390  -15.4232 N   0  0  0  0  0  0  0  0  0  0  0  0
  -18.9908    4.1843  -15.7841 H   0  0  0  0  0  0  0  0  0  0  0  0
  -20.1358    2.7411  -14.9095 C   0  0  0  0  0  0  0  0  0  0  0  0
  -21.1479    3.4548  -14.4690 N   0  0  0  0  0  0  0  0  0  0  0  0
  -22.1346    2.6484  -13.9668 C   0  0  0  0  0  0  0  0  0  0  0  0
  -21.9038    1.2899  -14.0369 C   0  0  0  0  0  0  0  0  0  0  0  0
  -20.3893    1.0333  -14.8077 S   0  0  0  0  0  0  0  0  0  0  0  0
  -22.7608    0.2056  -13.5595 C   0  0  0  0  0  0  0  0  0  0  0  0
  -22.5066   -0.3980  -12.3202 C   0  0  0  0  0  0  0  0  0  0  0  0
  -23.2586   -1.4925  -11.9024 C   0  0  0  0  0  0  0  0  0  0  0  0
  -24.2592   -1.9535  -12.7378 C   0  0  0  0  0  0  0  0  0  0  0  0
  -24.5523   -1.3962  -13.9315 N   0  0  0  0  0  0  0  0  0  0  0  0
  -23.7990   -0.3347  -14.3141 C   0  0  0  0  0  0  0  0  0  0  0  0
  -14.6812   -4.1266  -11.5582 C   0  0  0  0  0  0  0  0  0  0  0  0
  -15.7996   -3.5075  -11.0313 C   0  0  0  0  0  0  0  0  0  0  0  0
  -16.0150   -2.2117  -11.5785 C   0  0  0  0  0  0  0  0  0  0  0  0
  -15.0477   -1.8590  -12.5002 C   0  0  0  0  0  0  0  0  0  0  0  0
  -13.9230   -3.1311  -12.7263 S   0  0  0  0  0  0  0  0  0  0  0  0
  -13.2870   -5.9953  -12.1217 N   0  0  0  0  0  0  0  0  0  0  0  0
  -14.1758   -5.4537  -11.2069 C   0  0  0  0  0  0  0  0  0  0  0  0
  -14.5198   -5.9975  -10.1617 O   0  0  0  0  0  0  0  0  0  0  0  0
  -12.9787   -5.3732  -12.8515 H   0  0  0  0  0  0  0  0  0  0  0  0
  -10.8919   -6.3998  -10.6029 N   0  0  0  0  0  0  0  0  0  0  0  0
  -11.4536   -7.4250  -11.3951 C   0  0  0  0  0  0  0  0  0  0  0  0
  -10.9007   -8.7125  -11.2888 C   0  0  0  0  0  0  0  0  0  0  0  0
  -11.4755   -9.8025  -11.9418 C   0  0  0  0  0  0  0  0  0  0  0  0
  -12.6368   -9.6289  -12.6812 C   0  0  0  0  0  0  0  0  0  0  0  0
  -13.2354   -8.3694  -12.7512 C   0  0  0  0  0  0  0  0  0  0  0  0
  -12.6756   -7.2689  -12.0927 C   0  0  0  0  0  0  0  0  0  0  0  0
   -9.9210   -6.5808  -10.3610 H   0  0  0  0  0  0  0  0  0  0  0  0
  -11.0080   -5.4625  -10.9596 H   0  0  0  0  0  0  0  0  0  0  0  0
 33 34  1  0  0  0
 33 40  1  0  0  0
 33 41  1  0  0  0
 34 35  1  0  0  0
 34 39  2  0  0  0
 35 36  2  0  0  0
 36 37  1  0  0  0
 37 38  2  0  0  0
 38 39  1  0  0  0
 39 29  1  0  0  0
 29 30  1  0  0  0
 29 32  1  0  0  0
 30 31  2  0  0  0
 30 24  1  0  0  0
 24 25  2  0  0  0
 24 28  1  0  0  0
 25 26  1  0  0  0
 26 27  2  0  0  0
 27  1  1  0  0  0
 27 28  1  0  0  0
  1  2  2  0  0  0
  1  3  1  0  0  0
  3  5  1  0  0  0
  3  4  1  0  0  0
  5  6  1  0  0  0
  5 10  2  0  0  0
  6  7  2  0  0  0
  7  8  1  0  0  0
  8  9  2  0  0  0
  9 11  1  0  0  0
  9 10  1  0  0  0
 11 13  1  0  0  0
 11 12  1  0  0  0
 13 14  2  0  0  0
 13 17  1  0  0  0
 14 15  1  0  0  0
 15 16  2  0  0  0
 16 18  1  0  0  0
 16 17  1  0  0  0
 18 19  1  0  0  0
 18 23  2  0  0  0
 19 20  2  0  0  0
 20 21  1  0  0  0
 21 22  2  0  0  0
 22 23  1  0  0  0
M  END
> <minimizedAffinity>
-11.24163

$$$$
