CHEMBL3934772


 37 41  0  0  0  0  0  0  0  0999 V2000
  -15.1834    2.7532  -16.0931 N   0  0  0  0  0  0  0  0  0  0  0  0
  -16.5380    2.5484  -15.6559 C   0  0  0  0  0  0  0  0  0  0  0  0
  -16.7389    1.2210  -15.3432 C   0  0  0  0  0  0  0  0  0  0  0  0
  -17.9168    0.7957  -14.8803 C   0  0  0  0  0  0  0  0  0  0  0  0
  -18.9916    1.5813  -15.1402 C   0  0  0  0  0  0  0  0  0  0  0  0
  -19.8767    0.8574  -15.6869 N   0  0  0  0  0  0  0  0  0  0  0  0
  -20.8075    0.5735  -14.8220 C   0  0  0  0  0  0  0  0  0  0  0  0
  -21.4507    1.4812  -14.0536 C   0  0  0  0  0  0  0  0  0  0  0  0
  -20.7505    2.7447  -14.1338 N   0  0  0  0  0  0  0  0  0  0  0  0
  -19.2078    2.8513  -14.7873 C   0  0  0  0  0  0  0  0  0  0  0  0
  -17.7527    3.3933  -15.3882 C   0  0  0  0  0  0  0  0  0  0  0  0
  -22.5908    0.6105  -13.3366 C   0  0  0  0  0  0  0  0  0  0  0  0
  -22.7089   -0.8331  -13.6675 C   0  0  0  0  0  0  0  0  0  0  0  0
  -23.6822   -1.5224  -13.1170 N   0  0  0  0  0  0  0  0  0  0  0  0
  -24.3151   -0.6145  -12.3950 N   0  0  0  0  0  0  0  0  0  0  0  0
  -25.4123   -1.1666  -11.6179 C   0  0  0  0  0  0  0  0  0  0  0  0
  -23.7502    0.6847  -12.5313 C   0  0  0  0  0  0  0  0  0  0  0  0
  -12.4793    1.9360  -13.4386 C   0  0  0  0  0  0  0  0  0  0  0  0
  -11.6825    3.0745  -13.5365 C   0  0  0  0  0  0  0  0  0  0  0  0
  -12.0458    4.1021  -14.3903 C   0  0  0  0  0  0  0  0  0  0  0  0
  -13.1850    3.9562  -15.1931 C   0  0  0  0  0  0  0  0  0  0  0  0
  -14.0329    2.8156  -15.1608 C   0  0  0  0  0  0  0  0  0  0  0  0
  -13.6812    1.8394  -14.1936 C   0  0  0  0  0  0  0  0  0  0  0  0
  -11.5362   -0.2574  -13.3039 C   0  0  0  0  0  0  0  0  0  0  0  0
  -12.1438    0.8626  -12.6409 O   0  0  0  0  0  0  0  0  0  0  0  0
  -11.3551    5.2767  -14.5400 O   0  0  0  0  0  0  0  0  0  0  0  0
  -10.6966    5.7733  -13.3766 C   0  0  0  0  0  0  0  0  0  0  0  0
  -14.8055    2.7363  -17.5159 C   0  0  0  0  0  0  0  0  0  0  0  0
  -14.8041    4.0689  -18.1492 C   0  0  0  0  0  0  0  0  0  0  0  0
  -14.8133    5.1449  -18.6915 C   0  0  0  0  0  0  0  0  0  0  0  0
  -14.8272    6.4046  -19.3852 C   0  0  0  0  0  0  0  0  0  0  0  0
  -15.6206    6.4276  -20.4797 N   0  0  0  0  0  0  0  0  0  0  0  0
  -15.7777    7.6204  -21.0956 C   0  0  0  0  0  0  0  0  0  0  0  0
  -15.2612    8.8109  -20.6150 C   0  0  0  0  0  0  0  0  0  0  0  0
  -14.3953    8.7520  -19.5301 C   0  0  0  0  0  0  0  0  0  0  0  0
  -14.1233    7.5188  -18.9251 C   0  0  0  0  0  0  0  0  0  0  0  0
  -13.0687    7.4080  -17.8695 C   0  0  0  0  0  0  0  0  0  0  0  0
 24 25  1  0  0  0
 25 18  1  0  0  0
 18 19  1  0  0  0
 18 23  2  0  0  0
 19 20  2  0  0  0
 20 26  1  0  0  0
 20 21  1  0  0  0
 26 27  1  0  0  0
 21 22  2  0  0  0
 22  1  1  0  0  0
 22 23  1  0  0  0
  1 28  1  0  0  0
  1  2  1  0  0  0
 28 29  1  0  0  0
 29 30  3  0  0  0
 30 31  1  0  0  0
 31 32  1  0  0  0
 31 36  2  0  0  0
 32 33  2  0  0  0
 33 34  1  0  0  0
 34 35  2  0  0  0
 35 36  1  0  0  0
 36 37  1  0  0  0
  2  3  1  0  0  0
  2 11  2  0  0  0
  3  4  2  0  0  0
  4  5  1  0  0  0
  5  6  1  0  0  0
  5 10  2  0  0  0
  6  7  2  0  0  0
  7  8  1  0  0  0
  8 12  1  0  0  0
  8  9  2  0  0  0
 12 13  1  0  0  0
 12 17  2  0  0  0
 13 14  2  0  0  0
 14 15  1  0  0  0
 15 16  1  0  0  0
 15 17  1  0  0  0
  9 10  1  0  0  0
 10 11  1  0  0  0
M  END
> <minimizedAffinity>
-8.82923

$$$$
