CHEMBL3671578


 33 36  0  0  0  0  0  0  0  0999 V2000
  -26.9888   -9.0512   -5.2388 C   0  0  0  0  0  0  0  0  0  0  0  0
  -27.7324   -8.1277   -4.5022 C   0  0  0  0  0  0  0  0  0  0  0  0
  -29.0171   -7.7352   -4.9502 C   0  0  0  0  0  0  0  0  0  0  0  0
  -29.7542   -6.6448   -4.4656 C   0  0  0  0  0  0  0  0  0  0  0  0
  -30.9748   -6.3378   -4.9544 N   0  0  0  0  0  0  0  0  0  0  0  0
  -31.4462   -7.0929   -5.9456 C   0  0  0  0  0  0  0  0  0  0  0  0
  -30.8088   -8.1116   -6.5171 N   0  0  0  0  0  0  0  0  0  0  0  0
  -29.6017   -8.4020   -6.0326 C   0  0  0  0  0  0  0  0  0  0  0  0
  -28.8834   -9.3779   -6.6945 C   0  0  0  0  0  0  0  0  0  0  0  0
  -27.5597   -9.6761   -6.3622 C   0  0  0  0  0  0  0  0  0  0  0  0
  -25.1715  -10.1074   -3.9346 C   0  0  0  0  0  0  0  0  0  0  0  0
  -23.9689  -10.1935   -3.6984 O   0  0  0  0  0  0  0  0  0  0  0  0
  -25.6419   -9.2191   -4.8717 N   0  0  0  0  0  0  0  0  0  0  0  0
  -24.9178   -8.9738   -5.5369 H   0  0  0  0  0  0  0  0  0  0  0  0
  -26.1868  -12.3460   -3.7224 C   0  0  0  0  0  0  0  0  0  0  0  0
  -26.1501  -11.0663   -3.3522 C   0  0  0  0  0  0  0  0  0  0  0  0
  -29.1719   -5.7584   -3.5229 N   0  0  0  0  0  0  0  0  0  0  0  0
  -29.5487   -5.9084   -2.5912 H   0  0  0  0  0  0  0  0  0  0  0  0
  -28.9247   -4.3898   -3.7873 C   0  0  0  0  0  0  0  0  0  0  0  0
  -27.7229   -3.9743   -4.3807 C   0  0  0  0  0  0  0  0  0  0  0  0
  -27.5273   -2.6411   -4.7453 C   0  0  0  0  0  0  0  0  0  0  0  0
  -28.5310   -1.7072   -4.5003 C   0  0  0  0  0  0  0  0  0  0  0  0
  -28.2971    0.0797   -5.0689 Br  0  0  0  0  0  0  0  0  0  0  0  0
  -29.7094   -2.0844   -3.8603 C   0  0  0  0  0  0  0  0  0  0  0  0
  -29.8905   -3.4181   -3.5027 C   0  0  0  0  0  0  0  0  0  0  0  0
  -31.0363   -3.7842   -2.9069 F   0  0  0  0  0  0  0  0  0  0  0  0
  -26.7939  -10.5626   -7.0843 O   0  0  0  0  0  0  0  0  0  0  0  0
  -27.5258  -11.4236   -7.9570 C   0  0  0  0  0  0  0  0  0  0  0  0
  -27.6191  -10.8656   -9.3468 C   0  0  0  0  0  0  0  0  0  0  0  0
  -26.6088  -10.4185  -10.0269 N   0  0  0  0  0  0  0  0  0  0  0  0
  -27.2251   -9.9329  -11.2656 C   0  0  0  0  0  0  0  0  0  0  0  0
  -28.6418  -10.4605  -11.2341 C   0  0  0  0  0  0  0  0  0  0  0  0
  -28.8605  -10.8117   -9.8776 O   0  0  0  0  0  0  0  0  0  0  0  0
 15 16  2  0  0  0
 16 11  1  0  0  0
 11 12  2  0  0  0
 11 13  1  0  0  0
 13  1  1  0  0  0
 13 14  1  0  0  0
  1  2  1  0  0  0
  1 10  2  0  0  0
  2  3  2  0  0  0
  3  4  1  0  0  0
  3  8  1  0  0  0
  4 17  1  0  0  0
  4  5  2  0  0  0
 17 19  1  0  0  0
 17 18  1  0  0  0
 19 20  1  0  0  0
 19 25  2  0  0  0
 20 21  2  0  0  0
 21 22  1  0  0  0
 22 23  1  0  0  0
 22 24  2  0  0  0
 24 25  1  0  0  0
 25 26  1  0  0  0
  5  6  1  0  0  0
  6  7  2  0  0  0
  7  8  1  0  0  0
  8  9  2  0  0  0
  9 10  1  0  0  0
 10 27  1  0  0  0
 27 28  1  0  0  0
 28 29  1  0  0  0
 29 30  2  0  0  0
 29 33  1  0  0  0
 30 31  1  0  0  0
 31 32  1  0  0  0
 32 33  1  0  0  0
M  END
> <minimizedAffinity>
-7.87259

$$$$
