CHEMBL3657547


 34 38  0  0  0  0  0  0  0  0999 V2000
  -14.9000   -3.2857  -12.8002 C   0  0  0  0  0  0  0  0  0  0  0  0
  -14.0090   -4.0468  -13.5100 N   0  0  0  0  0  0  0  0  0  0  0  0
  -13.8863   -5.3445  -13.1641 C   0  0  0  0  0  0  0  0  0  0  0  0
  -14.6445   -5.9164  -12.2156 N   0  0  0  0  0  0  0  0  0  0  0  0
  -15.5326   -5.1434  -11.5643 C   0  0  0  0  0  0  0  0  0  0  0  0
  -15.6949   -3.8029  -11.8054 C   0  0  0  0  0  0  0  0  0  0  0  0
  -16.6092   -3.1200  -11.1099 F   0  0  0  0  0  0  0  0  0  0  0  0
  -13.7143    1.3923  -13.4029 C   0  0  0  0  0  0  0  0  0  0  0  0
  -14.5686    0.1791  -13.3129 C   0  0  0  0  0  0  0  0  0  0  0  0
  -14.0152   -1.0069  -13.0274 N   0  0  0  0  0  0  0  0  0  0  0  0
  -15.0266   -1.9014  -13.1345 N   0  0  0  0  0  0  0  0  0  0  0  0
  -16.1603   -1.2948  -13.6272 C   0  0  0  0  0  0  0  0  0  0  0  0
  -15.9673    0.0721  -13.5560 C   0  0  0  0  0  0  0  0  0  0  0  0
  -16.9201    1.1906  -13.8430 C   0  0  0  0  0  0  0  0  0  0  0  0
  -17.4732    1.1592  -15.2164 N   0  0  0  0  0  0  0  0  0  0  0  0
  -17.5269    2.4601  -15.9383 C   0  0  0  0  0  0  0  0  0  0  0  0
  -18.8630    2.7910  -15.2435 C   0  0  0  0  0  0  0  0  0  0  0  0
  -18.8029    3.5667  -14.0206 O   0  0  0  0  0  0  0  0  0  0  0  0
  -18.9705    1.2459  -15.1185 C   0  0  0  0  0  0  0  0  0  0  0  0
  -17.8669    3.8234  -13.9241 H   0  0  0  0  0  0  0  0  0  0  0  0
  -12.9230   -6.0933  -13.8437 N   0  0  0  0  0  0  0  0  0  0  0  0
  -12.0635   -6.0999  -13.3138 H   0  0  0  0  0  0  0  0  0  0  0  0
  -13.0542   -7.1442  -14.7760 C   0  0  0  0  0  0  0  0  0  0  0  0
  -12.9232   -8.4964  -14.4455 C   0  0  0  0  0  0  0  0  0  0  0  0
  -13.0325   -9.5231  -15.3966 C   0  0  0  0  0  0  0  0  0  0  0  0
  -13.2912   -9.1678  -16.7261 C   0  0  0  0  0  0  0  0  0  0  0  0
  -13.4823   -7.8368  -17.0987 C   0  0  0  0  0  0  0  0  0  0  0  0
  -13.3884   -6.8291  -16.1058 C   0  0  0  0  0  0  0  0  0  0  0  0
  -13.7248   -7.8343  -18.4998 C   0  0  0  0  0  0  0  0  0  0  0  0
  -14.0190   -6.4324  -19.4242 Cl  0  0  0  0  0  0  0  0  0  0  0  0
  -13.6363   -9.1321  -18.9678 C   0  0  0  0  0  0  0  0  0  0  0  0
  -13.7363   -9.6517  -20.3602 C   0  0  0  0  0  0  0  0  0  0  0  0
  -13.4086   -9.9379  -17.8706 N   0  0  0  0  0  0  0  0  0  0  0  0
  -13.2782  -11.3815  -17.8813 C   0  0  0  0  0  0  0  0  0  0  0  0
  8  9  1  0  0  0
  9 10  2  0  0  0
  9 13  1  0  0  0
 10 11  1  0  0  0
 11  1  1  0  0  0
 11 12  1  0  0  0
  1  2  1  0  0  0
  1  6  2  0  0  0
  2  3  2  0  0  0
  3 21  1  0  0  0
  3  4  1  0  0  0
 21 23  1  0  0  0
 21 22  1  0  0  0
 23 24  1  0  0  0
 23 28  2  0  0  0
 24 25  2  0  0  0
 25 26  1  0  0  0
 26 27  2  0  0  0
 26 33  1  0  0  0
 27 28  1  0  0  0
 27 29  1  0  0  0
 29 30  1  0  0  0
 29 31  2  0  0  0
 31 32  1  0  0  0
 31 33  1  0  0  0
 33 34  1  0  0  0
  4  5  2  0  0  0
  5  6  1  0  0  0
  6  7  1  0  0  0
 12 13  2  0  0  0
 13 14  1  0  0  0
 14 15  1  0  0  0
 15 16  1  0  0  0
 15 19  1  0  0  0
 16 17  1  0  0  0
 17 18  1  0  0  0
 17 19  1  0  0  0
 18 20  1  0  0  0
M  END
> <minimizedAffinity>
-7.71596

$$$$
