CHEMBL2004311


 32 35  0  0  0  0  0  0  0  0999 V2000
  -25.7751   -1.8010  -11.9992 C   0  0  0  0  0  0  0  0  0  0  0  0
  -24.6115   -1.5131  -11.3116 C   0  0  0  0  0  0  0  0  0  0  0  0
  -23.4838   -1.0825  -12.0170 C   0  0  0  0  0  0  0  0  0  0  0  0
  -23.5005   -0.7763  -13.3983 C   0  0  0  0  0  0  0  0  0  0  0  0
  -24.7100   -1.0640  -14.0876 C   0  0  0  0  0  0  0  0  0  0  0  0
  -24.9752   -0.8421  -15.5570 C   0  0  0  0  0  0  0  0  0  0  0  0
  -25.8119   -1.6065  -13.3784 C   0  0  0  0  0  0  0  0  0  0  0  0
  -22.2992   -0.1272  -14.0065 C   0  0  0  0  0  0  0  0  0  0  0  0
  -21.2489   -0.8706  -14.5931 C   0  0  0  0  0  0  0  0  0  0  0  0
  -20.1929   -0.2704  -15.3172 C   0  0  0  0  0  0  0  0  0  0  0  0
  -20.1059    1.1113  -15.4278 C   0  0  0  0  0  0  0  0  0  0  0  0
  -21.0716    1.8466  -14.7776 C   0  0  0  0  0  0  0  0  0  0  0  0
  -22.1401    1.2659  -14.0734 C   0  0  0  0  0  0  0  0  0  0  0  0
  -22.9552    2.3739  -13.4728 C   0  0  0  0  0  0  0  0  0  0  0  0
  -22.3218    3.5687  -13.9648 N   0  0  0  0  0  0  0  0  0  0  0  0
  -21.1898    3.3039  -14.6943 C   0  0  0  0  0  0  0  0  0  0  0  0
  -20.4192    4.1156  -15.1664 O   0  0  0  0  0  0  0  0  0  0  0  0
  -22.5592    4.5127  -13.6909 H   0  0  0  0  0  0  0  0  0  0  0  0
  -28.1248   -2.6978   -9.4121 N   0  0  0  0  0  0  0  0  0  0  0  0
  -26.9667   -2.1376   -9.9108 C   0  0  0  0  0  0  0  0  0  0  0  0
  -26.1261   -1.5399   -9.2508 O   0  0  0  0  0  0  0  0  0  0  0  0
  -26.8848   -2.3023  -11.2867 N   0  0  0  0  0  0  0  0  0  0  0  0
  -28.4791   -3.4973   -9.9188 H   0  0  0  0  0  0  0  0  0  0  0  0
  -27.7812   -2.2352  -11.7485 H   0  0  0  0  0  0  0  0  0  0  0  0
  -30.3781   -4.6003   -5.4539 C   0  0  0  0  0  0  0  0  0  0  0  0
  -29.7110   -3.4421   -6.1365 C   0  0  0  0  0  0  0  0  0  0  0  0
  -29.5034   -2.2406   -5.4523 C   0  0  0  0  0  0  0  0  0  0  0  0
  -28.8697   -1.1636   -6.0802 C   0  0  0  0  0  0  0  0  0  0  0  0
  -28.6348    0.1351   -5.3695 C   0  0  0  0  0  0  0  0  0  0  0  0
  -28.4242   -1.3117   -7.4043 C   0  0  0  0  0  0  0  0  0  0  0  0
  -28.5958   -2.5144   -8.0919 C   0  0  0  0  0  0  0  0  0  0  0  0
  -29.2685   -3.5663   -7.4630 C   0  0  0  0  0  0  0  0  0  0  0  0
 25 26  1  0  0  0
 26 27  1  0  0  0
 26 32  2  0  0  0
 27 28  2  0  0  0
 28 29  1  0  0  0
 28 30  1  0  0  0
 30 31  2  0  0  0
 31 19  1  0  0  0
 31 32  1  0  0  0
 19 20  1  0  0  0
 19 23  1  0  0  0
 20 21  2  0  0  0
 20 22  1  0  0  0
 22  1  1  0  0  0
 22 24  1  0  0  0
  1  2  1  0  0  0
  1  7  2  0  0  0
  2  3  2  0  0  0
  3  4  1  0  0  0
  4  8  1  0  0  0
  4  5  2  0  0  0
  8  9  1  0  0  0
  8 13  2  0  0  0
  9 10  2  0  0  0
 10 11  1  0  0  0
 11 12  2  0  0  0
 12 13  1  0  0  0
 12 16  1  0  0  0
 13 14  1  0  0  0
 14 15  1  0  0  0
 15 16  1  0  0  0
 15 18  1  0  0  0
 16 17  2  0  0  0
  5  6  1  0  0  0
  5  7  1  0  0  0
M  END
> <minimizedAffinity>
-10.96618

$$$$
