CHEMBL3890887


 37 40  0  0  0  0  0  0  0  0999 V2000
  -14.5939   -1.9314  -13.7731 C   0  0  0  0  0  0  0  0  0  0  0  0
  -15.1226   -3.2234  -13.8636 C   0  0  0  0  0  0  0  0  0  0  0  0
  -14.3933   -4.3371  -13.4459 C   0  0  0  0  0  0  0  0  0  0  0  0
  -13.1331   -4.1744  -12.8750 C   0  0  0  0  0  0  0  0  0  0  0  0
  -12.5759   -2.8928  -12.8447 C   0  0  0  0  0  0  0  0  0  0  0  0
  -11.3418   -2.7088  -12.3523 F   0  0  0  0  0  0  0  0  0  0  0  0
  -13.2888   -1.7759  -13.3010 C   0  0  0  0  0  0  0  0  0  0  0  0
  -14.9011    0.1738  -15.0509 C   0  0  0  0  0  0  0  0  0  0  0  0
  -13.8531    0.1576  -15.6890 O   0  0  0  0  0  0  0  0  0  0  0  0
  -15.3289   -0.7864  -14.1481 N   0  0  0  0  0  0  0  0  0  0  0  0
  -16.2850   -0.6867  -13.8211 H   0  0  0  0  0  0  0  0  0  0  0  0
  -18.0340    2.1620  -15.1681 C   0  0  0  0  0  0  0  0  0  0  0  0
  -17.1785    1.1042  -14.9528 C   0  0  0  0  0  0  0  0  0  0  0  0
  -15.8543    1.3011  -15.2864 C   0  0  0  0  0  0  0  0  0  0  0  0
  -15.3602    2.4453  -15.8059 N   0  0  0  0  0  0  0  0  0  0  0  0
  -16.2789    3.4010  -15.9963 C   0  0  0  0  0  0  0  0  0  0  0  0
  -17.5904    3.3180  -15.7081 N   0  0  0  0  0  0  0  0  0  0  0  0
  -22.1880    1.8610  -14.0426 C   0  0  0  0  0  0  0  0  0  0  0  0
  -21.5525    3.1039  -14.0757 C   0  0  0  0  0  0  0  0  0  0  0  0
  -20.2175    3.2045  -14.4751 C   0  0  0  0  0  0  0  0  0  0  0  0
  -19.4731    2.0697  -14.8511 C   0  0  0  0  0  0  0  0  0  0  0  0
  -20.1464    0.8375  -14.8730 C   0  0  0  0  0  0  0  0  0  0  0  0
  -21.4849    0.7322  -14.4747 C   0  0  0  0  0  0  0  0  0  0  0  0
  -23.8128    0.5433  -12.6543 C   0  0  0  0  0  0  0  0  0  0  0  0
  -23.6080    1.7508  -13.5528 C   0  0  0  0  0  0  0  0  0  0  0  0
  -12.3841   -5.2224  -12.3806 O   0  0  0  0  0  0  0  0  0  0  0  0
  -12.8246   -6.5194  -12.5723 C   0  0  0  0  0  0  0  0  0  0  0  0
  -13.2822   -7.3416  -11.5428 C   0  0  0  0  0  0  0  0  0  0  0  0
  -13.7297   -8.6129  -11.8628 C   0  0  0  0  0  0  0  0  0  0  0  0
  -13.7051   -9.1272  -13.1082 N   0  0  0  0  0  0  0  0  0  0  0  0
  -13.1974   -8.3220  -14.0855 C   0  0  0  0  0  0  0  0  0  0  0  0
  -12.7480   -7.0248  -13.8667 C   0  0  0  0  0  0  0  0  0  0  0  0
  -13.1527   -8.9174  -15.4670 C   0  0  0  0  0  0  0  0  0  0  0  0
  -12.6495  -10.0188  -15.6631 O   0  0  0  0  0  0  0  0  0  0  0  0
  -13.7177   -8.1357  -16.4488 N   0  0  0  0  0  0  0  0  0  0  0  0
  -13.7816   -8.5259  -17.8329 C   0  0  0  0  0  0  0  0  0  0  0  0
  -14.1076   -7.2468  -16.1483 H   0  0  0  0  0  0  0  0  0  0  0  0
 24 25  1  0  0  0
 25 18  1  0  0  0
 18 19  1  0  0  0
 18 23  2  0  0  0
 19 20  2  0  0  0
 20 21  1  0  0  0
 21 12  1  0  0  0
 21 22  2  0  0  0
 12 13  1  0  0  0
 12 17  2  0  0  0
 13 14  2  0  0  0
 14  8  1  0  0  0
 14 15  1  0  0  0
  8  9  2  0  0  0
  8 10  1  0  0  0
 10  1  1  0  0  0
 10 11  1  0  0  0
  1  2  1  0  0  0
  1  7  2  0  0  0
  2  3  2  0  0  0
  3  4  1  0  0  0
  4 26  1  0  0  0
  4  5  2  0  0  0
 26 27  1  0  0  0
 27 28  1  0  0  0
 27 32  2  0  0  0
 28 29  2  0  0  0
 29 30  1  0  0  0
 30 31  2  0  0  0
 31 33  1  0  0  0
 31 32  1  0  0  0
 33 34  2  0  0  0
 33 35  1  0  0  0
 35 36  1  0  0  0
 35 37  1  0  0  0
  5  6  1  0  0  0
  5  7  1  0  0  0
 15 16  2  0  0  0
 16 17  1  0  0  0
 22 23  1  0  0  0
M  END
> <minimizedAffinity>
-9.47337

$$$$
