CHEMBL1242378


 27 29  0  0  0  0  0  0  0  0999 V2000
  -28.6648   -9.4665   -9.0866 N   0  0  0  0  0  0  0  0  0  0  0  0
  -28.2601   -8.2524   -8.6451 N   0  0  0  0  0  0  0  0  0  0  0  0
  -29.2611   -7.8372   -7.8457 C   0  0  0  0  0  0  0  0  0  0  0  0
  -30.3572   -8.7612   -7.8627 C   0  0  0  0  0  0  0  0  0  0  0  0
  -31.6408   -8.8991   -7.3111 C   0  0  0  0  0  0  0  0  0  0  0  0
  -32.2758   -7.9731   -6.4964 N   0  0  0  0  0  0  0  0  0  0  0  0
  -32.3467  -10.0177   -7.5777 N   0  0  0  0  0  0  0  0  0  0  0  0
  -31.7955  -10.9554   -8.3683 C   0  0  0  0  0  0  0  0  0  0  0  0
  -30.5943  -10.9310   -8.9603 N   0  0  0  0  0  0  0  0  0  0  0  0
  -29.9243   -9.8002   -8.6701 C   0  0  0  0  0  0  0  0  0  0  0  0
  -32.0642   -6.9992   -6.6725 H   0  0  0  0  0  0  0  0  0  0  0  0
  -33.2564   -8.1992   -6.3713 H   0  0  0  0  0  0  0  0  0  0  0  0
  -29.1322   -6.5804   -7.1050 C   0  0  0  0  0  0  0  0  0  0  0  0
  -29.5923   -5.3697   -7.6566 C   0  0  0  0  0  0  0  0  0  0  0  0
  -29.5372   -4.1835   -6.9173 C   0  0  0  0  0  0  0  0  0  0  0  0
  -29.0387   -4.2127   -5.6201 C   0  0  0  0  0  0  0  0  0  0  0  0
  -29.0311   -3.0974   -4.8783 F   0  0  0  0  0  0  0  0  0  0  0  0
  -28.5533   -5.3969   -5.0790 C   0  0  0  0  0  0  0  0  0  0  0  0
  -28.0895   -5.4550   -3.7961 O   0  0  0  0  0  0  0  0  0  0  0  0
  -28.5554   -6.5648   -5.8281 C   0  0  0  0  0  0  0  0  0  0  0  0
  -28.2209   -4.5726   -3.4034 H   0  0  0  0  0  0  0  0  0  0  0  0
  -26.4492  -10.5198   -8.9757 C   0  0  0  0  0  0  0  0  0  0  0  0
  -27.7307  -10.3396   -9.7932 C   0  0  0  0  0  0  0  0  0  0  0  0
  -27.4524   -9.8934  -11.2470 C   0  0  0  0  0  0  0  0  0  0  0  0
  -26.5897   -8.7191  -11.4206 N   0  0  0  0  0  0  0  0  0  0  0  0
  -25.6797   -8.8923  -10.9926 H   0  0  0  0  0  0  0  0  0  0  0  0
  -26.9833   -7.9631  -10.8446 H   0  0  0  0  0  0  0  0  0  0  0  0
 23  1  1  0  0  0
 23 24  1  0  0  0
 23 22  1  0  0  0
 24 25  1  0  0  0
 25 26  1  0  0  0
 25 27  1  0  0  0
  1  2  1  0  0  0
  1 10  1  0  0  0
  2  3  2  0  0  0
  3 13  1  0  0  0
  3  4  1  0  0  0
 13 14  1  0  0  0
 13 20  2  0  0  0
 14 15  2  0  0  0
 15 16  1  0  0  0
 16 17  1  0  0  0
 16 18  2  0  0  0
 18 19  1  0  0  0
 18 20  1  0  0  0
 19 21  1  0  0  0
  4  5  1  0  0  0
  4 10  2  0  0  0
  5  6  1  0  0  0
  5  7  2  0  0  0
  6 11  1  0  0  0
  6 12  1  0  0  0
  7  8  1  0  0  0
  8  9  2  0  0  0
  9 10  1  0  0  0
M  END
> <minimizedAffinity>
-7.70639

$$$$
