CHEMBL3287316


 45 49  0  0  0  0  0  0  0  0999 V2000
  -24.4191   -1.6628  -12.6947 C   0  0  0  0  0  0  0  0  0  0  0  0
  -23.4232   -1.2936  -11.7967 C   0  0  0  0  0  0  0  0  0  0  0  0
  -22.4570   -0.3424  -12.1395 C   0  0  0  0  0  0  0  0  0  0  0  0
  -22.4297    0.2098  -13.4205 C   0  0  0  0  0  0  0  0  0  0  0  0
  -23.3945   -0.2060  -14.3486 C   0  0  0  0  0  0  0  0  0  0  0  0
  -24.3741   -1.1399  -13.9881 C   0  0  0  0  0  0  0  0  0  0  0  0
  -25.2754   -1.5186  -14.9062 F   0  0  0  0  0  0  0  0  0  0  0  0
  -21.4918    1.1896  -13.8174 N   0  0  0  0  0  0  0  0  0  0  0  0
  -20.4051    1.0105  -14.6553 C   0  0  0  0  0  0  0  0  0  0  0  0
  -20.1225    0.0169  -15.3105 O   0  0  0  0  0  0  0  0  0  0  0  0
  -21.6516    2.1351  -13.4842 H   0  0  0  0  0  0  0  0  0  0  0  0
  -19.5010    2.2068  -14.7471 C   0  0  0  0  0  0  0  0  0  0  0  0
  -19.9662    3.5144  -14.1022 C   0  0  0  0  0  0  0  0  0  0  0  0
  -20.0172    3.3818  -15.5897 C   0  0  0  0  0  0  0  0  0  0  0  0
  -18.0257    1.9468  -14.8005 C   0  0  0  0  0  0  0  0  0  0  0  0
  -17.5120    1.3216  -13.8805 O   0  0  0  0  0  0  0  0  0  0  0  0
  -17.3560    2.4874  -15.8871 N   0  0  0  0  0  0  0  0  0  0  0  0
  -17.7829    3.2971  -16.3254 H   0  0  0  0  0  0  0  0  0  0  0  0
  -15.9736    2.2773  -16.0794 C   0  0  0  0  0  0  0  0  0  0  0  0
  -15.5262    1.0297  -16.5234 C   0  0  0  0  0  0  0  0  0  0  0  0
  -14.1672    0.8267  -16.7936 C   0  0  0  0  0  0  0  0  0  0  0  0
  -13.2470    1.8466  -16.5543 C   0  0  0  0  0  0  0  0  0  0  0  0
  -13.6940    3.0648  -16.0577 C   0  0  0  0  0  0  0  0  0  0  0  0
  -12.8057    4.0325  -15.7929 F   0  0  0  0  0  0  0  0  0  0  0  0
  -15.0477    3.2953  -15.8329 C   0  0  0  0  0  0  0  0  0  0  0  0
  -25.4424   -2.5407  -12.3662 O   0  0  0  0  0  0  0  0  0  0  0  0
  -27.4425   -2.3155   -9.4239 C   0  0  0  0  0  0  0  0  0  0  0  0
  -28.3659   -1.3979   -9.7290 N   0  0  0  0  0  0  0  0  0  0  0  0
  -28.2236   -0.7744  -10.9205 C   0  0  0  0  0  0  0  0  0  0  0  0
  -27.2378   -1.0677  -11.8360 C   0  0  0  0  0  0  0  0  0  0  0  0
  -26.3870   -2.0688  -11.4561 C   0  0  0  0  0  0  0  0  0  0  0  0
  -26.4474   -2.6475  -10.2515 N   0  0  0  0  0  0  0  0  0  0  0  0
  -27.5347   -3.0055   -8.2155 N   0  0  0  0  0  0  0  0  0  0  0  0
  -27.5150   -4.0056   -8.3432 H   0  0  0  0  0  0  0  0  0  0  0  0
  -29.8537   -2.8288   -5.3106 C   0  0  0  0  0  0  0  0  0  0  0  0
  -29.3552   -1.6979   -4.6476 C   0  0  0  0  0  0  0  0  0  0  0  0
  -28.2976   -0.9762   -5.1883 C   0  0  0  0  0  0  0  0  0  0  0  0
  -27.7181   -1.3936   -6.3828 C   0  0  0  0  0  0  0  0  0  0  0  0
  -28.1826   -2.5280   -7.0625 C   0  0  0  0  0  0  0  0  0  0  0  0
  -29.2834   -3.2141   -6.5381 C   0  0  0  0  0  0  0  0  0  0  0  0
  -30.9499   -3.6464   -4.6852 C   0  0  0  0  0  0  0  0  0  0  0  0
  -31.5199   -5.8337   -3.0952 C   0  0  0  0  0  0  0  0  0  0  0  0
  -30.3619   -5.2972   -4.3269 S   0  0  0  0  0  0  0  0  0  0  0  0
  -29.0684   -5.2140   -3.6809 O   0  0  0  0  0  0  0  0  0  0  0  0
  -30.5738   -6.1424   -5.4900 O   0  0  0  0  0  0  0  0  0  0  0  0
 42 43  1  0  0  0
 43 44  2  0  0  0
 43 45  2  0  0  0
 43 41  1  0  0  0
 41 35  1  0  0  0
 35 36  1  0  0  0
 35 40  2  0  0  0
 36 37  2  0  0  0
 37 38  1  0  0  0
 38 39  2  0  0  0
 39 33  1  0  0  0
 39 40  1  0  0  0
 33 27  1  0  0  0
 33 34  1  0  0  0
 27 28  1  0  0  0
 27 32  2  0  0  0
 28 29  2  0  0  0
 29 30  1  0  0  0
 30 31  2  0  0  0
 31 26  1  0  0  0
 31 32  1  0  0  0
 26  1  1  0  0  0
  1  2  1  0  0  0
  1  6  2  0  0  0
  2  3  2  0  0  0
  3  4  1  0  0  0
  4  8  1  0  0  0
  4  5  2  0  0  0
  8  9  1  0  0  0
  8 11  1  0  0  0
  9 10  2  0  0  0
  9 12  1  0  0  0
 12 15  1  0  0  0
 12 13  1  0  0  0
 12 14  1  0  0  0
 15 16  2  0  0  0
 15 17  1  0  0  0
 17 19  1  0  0  0
 17 18  1  0  0  0
 19 20  1  0  0  0
 19 25  2  0  0  0
 20 21  2  0  0  0
 21 22  1  0  0  0
 22 23  2  0  0  0
 23 24  1  0  0  0
 23 25  1  0  0  0
 13 14  1  0  0  0
  5  6  1  0  0  0
  6  7  1  0  0  0
M  END
> <minimizedAffinity>
-10.55496

$$$$
