CHEMBL117983


 32 36  0  0  0  0  0  0  0  0999 V2000
  -15.6491    2.4505  -16.4960 C   0  0  0  0  0  0  0  0  0  0  0  0
  -16.1077    3.7710  -16.4941 C   0  0  0  0  0  0  0  0  0  0  0  0
  -17.3395    4.0940  -15.9112 C   0  0  0  0  0  0  0  0  0  0  0  0
  -18.0885    3.0468  -15.3618 C   0  0  0  0  0  0  0  0  0  0  0  0
  -19.3386    3.0478  -14.7862 N   0  0  0  0  0  0  0  0  0  0  0  0
  -19.7332    1.7662  -14.4553 C   0  0  0  0  0  0  0  0  0  0  0  0
  -18.6655    0.9438  -14.7702 C   0  0  0  0  0  0  0  0  0  0  0  0
  -17.6424    1.7271  -15.3551 C   0  0  0  0  0  0  0  0  0  0  0  0
  -16.3950    1.4165  -15.9207 C   0  0  0  0  0  0  0  0  0  0  0  0
  -19.9311    3.8614  -14.6774 H   0  0  0  0  0  0  0  0  0  0  0  0
  -21.0704    1.4323  -13.9463 C   0  0  0  0  0  0  0  0  0  0  0  0
  -21.3443    0.1330  -13.5156 C   0  0  0  0  0  0  0  0  0  0  0  0
  -22.6367   -0.2397  -13.1345 C   0  0  0  0  0  0  0  0  0  0  0  0
  -22.9227   -1.5606  -12.7544 C   0  0  0  0  0  0  0  0  0  0  0  0
  -24.2222   -1.9282  -12.4244 C   0  0  0  0  0  0  0  0  0  0  0  0
  -25.2322   -0.9740  -12.4608 C   0  0  0  0  0  0  0  0  0  0  0  0
  -24.9377    0.3463  -12.8218 C   0  0  0  0  0  0  0  0  0  0  0  0
  -23.6507    0.7396  -13.1668 C   0  0  0  0  0  0  0  0  0  0  0  0
  -23.4074    2.0114  -13.5340 N   0  0  0  0  0  0  0  0  0  0  0  0
  -22.1483    2.3117  -13.9111 C   0  0  0  0  0  0  0  0  0  0  0  0
  -22.0298    3.6128  -14.2962 O   0  0  0  0  0  0  0  0  0  0  0  0
  -22.9541    3.8955  -14.1589 H   0  0  0  0  0  0  0  0  0  0  0  0
  -14.1667    2.0175  -17.3689 S   0  0  0  0  0  0  0  0  0  0  0  0
  -13.7508    3.1671  -18.1430 O   0  0  0  0  0  0  0  0  0  0  0  0
  -14.4191    0.7474  -18.0184 O   0  0  0  0  0  0  0  0  0  0  0  0
  -10.8779    5.4424  -15.8708 C   0  0  0  0  0  0  0  0  0  0  0  0
  -11.2551    4.0580  -15.5830 N   0  0  0  0  0  0  0  0  0  0  0  0
  -12.6389    4.0035  -15.0636 C   0  0  0  0  0  0  0  0  0  0  0  0
  -13.1607    2.5623  -14.8796 C   0  0  0  0  0  0  0  0  0  0  0  0
  -13.0273    1.7478  -16.1267 N   0  0  0  0  0  0  0  0  0  0  0  0
  -11.6032    1.7856  -16.5903 C   0  0  0  0  0  0  0  0  0  0  0  0
  -11.1183    3.2319  -16.8023 C   0  0  0  0  0  0  0  0  0  0  0  0
 26 27  1  0  0  0
 27 28  1  0  0  0
 27 32  1  0  0  0
 28 29  1  0  0  0
 29 30  1  0  0  0
 30 23  1  0  0  0
 30 31  1  0  0  0
 23 24  2  0  0  0
 23 25  2  0  0  0
 23  1  1  0  0  0
  1  2  1  0  0  0
  1  9  2  0  0  0
  2  3  2  0  0  0
  3  4  1  0  0  0
  4  5  1  0  0  0
  4  8  2  0  0  0
  5  6  1  0  0  0
  5 10  1  0  0  0
  6 11  1  0  0  0
  6  7  2  0  0  0
 11 12  1  0  0  0
 11 20  2  0  0  0
 12 13  2  0  0  0
 13 14  1  0  0  0
 13 18  1  0  0  0
 14 15  2  0  0  0
 15 16  1  0  0  0
 16 17  2  0  0  0
 17 18  1  0  0  0
 18 19  2  0  0  0
 19 20  1  0  0  0
 20 21  1  0  0  0
 21 22  1  0  0  0
  7  8  1  0  0  0
  8  9  1  0  0  0
 31 32  1  0  0  0
M  END
> <minimizedAffinity>
-9.23202

$$$$
