CHEMBL272874


 36 40  0  0  0  0  0  0  0  0999 V2000
  -29.7570   -6.9452   -6.1230 C   0  0  0  0  0  0  0  0  0  0  0  0
  -28.5860   -6.9521   -5.3685 C   0  0  0  0  0  0  0  0  0  0  0  0
  -27.9561   -8.1638   -5.0289 C   0  0  0  0  0  0  0  0  0  0  0  0
  -28.4853   -9.4011   -5.4237 C   0  0  0  0  0  0  0  0  0  0  0  0
  -29.6678   -9.3702   -6.1957 C   0  0  0  0  0  0  0  0  0  0  0  0
  -30.3044   -8.1633   -6.5225 C   0  0  0  0  0  0  0  0  0  0  0  0
  -30.3039  -10.4890   -6.6840 O   0  0  0  0  0  0  0  0  0  0  0  0
  -29.9461  -11.6723   -5.9750 C   0  0  0  0  0  0  0  0  0  0  0  0
  -28.4397  -11.7989   -5.8537 C   0  0  0  0  0  0  0  0  0  0  0  0
  -27.8954  -10.6777   -5.0714 N   0  0  0  0  0  0  0  0  0  0  0  0
  -26.9968  -10.8305   -4.0096 C   0  0  0  0  0  0  0  0  0  0  0  0
  -26.5803   -9.9155   -3.3028 O   0  0  0  0  0  0  0  0  0  0  0  0
  -26.6426  -12.1297   -3.7083 N   0  0  0  0  0  0  0  0  0  0  0  0
  -26.5515  -12.7828   -4.4699 H   0  0  0  0  0  0  0  0  0  0  0  0
  -30.3264   -5.7120   -6.3814 O   0  0  0  0  0  0  0  0  0  0  0  0
  -28.1990   -1.2070   -5.2951 C   0  0  0  0  0  0  0  0  0  0  0  0
  -29.1097   -1.5492   -4.2838 C   0  0  0  0  0  0  0  0  0  0  0  0
  -29.8561   -2.7163   -4.3109 C   0  0  0  0  0  0  0  0  0  0  0  0
  -30.6276   -2.9916   -3.2468 N   0  0  0  0  0  0  0  0  0  0  0  0
  -31.3311   -4.1394   -3.2410 C   0  0  0  0  0  0  0  0  0  0  0  0
  -31.2960   -5.0596   -4.2622 C   0  0  0  0  0  0  0  0  0  0  0  0
  -30.4568   -4.8009   -5.3462 C   0  0  0  0  0  0  0  0  0  0  0  0
  -29.7491   -3.5773   -5.4198 C   0  0  0  0  0  0  0  0  0  0  0  0
  -28.9313   -3.1694   -6.4986 C   0  0  0  0  0  0  0  0  0  0  0  0
  -28.1553   -1.9972   -6.4478 C   0  0  0  0  0  0  0  0  0  0  0  0
  -28.0602    1.1178   -4.8537 C   0  0  0  0  0  0  0  0  0  0  0  0
  -27.3908   -0.1065   -5.1744 O   0  0  0  0  0  0  0  0  0  0  0  0
  -27.4310   -1.8111   -7.5938 O   0  0  0  0  0  0  0  0  0  0  0  0
  -27.7736   -2.5301   -8.7683 C   0  0  0  0  0  0  0  0  0  0  0  0
  -25.7831  -12.4082   -2.5737 C   0  0  0  0  0  0  0  0  0  0  0  0
  -24.3207  -12.3868   -2.9476 C   0  0  0  0  0  0  0  0  0  0  0  0
  -23.9165  -12.4641   -4.2872 C   0  0  0  0  0  0  0  0  0  0  0  0
  -22.5635  -12.3779   -4.6282 C   0  0  0  0  0  0  0  0  0  0  0  0
  -21.5999  -12.2113   -3.6350 C   0  0  0  0  0  0  0  0  0  0  0  0
  -21.9875  -12.1324   -2.2998 C   0  0  0  0  0  0  0  0  0  0  0  0
  -23.3394  -12.2196   -1.9583 C   0  0  0  0  0  0  0  0  0  0  0  0
 26 27  1  0  0  0
 27 16  1  0  0  0
 16 17  1  0  0  0
 16 25  2  0  0  0
 17 18  2  0  0  0
 18 19  1  0  0  0
 18 23  1  0  0  0
 19 20  2  0  0  0
 20 21  1  0  0  0
 21 22  2  0  0  0
 22 15  1  0  0  0
 22 23  1  0  0  0
 15  1  1  0  0  0
  1  2  1  0  0  0
  1  6  2  0  0  0
  2  3  2  0  0  0
  3  4  1  0  0  0
  4  5  2  0  0  0
  4 10  1  0  0  0
  5  6  1  0  0  0
  5  7  1  0  0  0
  7  8  1  0  0  0
  8  9  1  0  0  0
  9 10  1  0  0  0
 10 11  1  0  0  0
 11 12  2  0  0  0
 11 13  1  0  0  0
 13 30  1  0  0  0
 13 14  1  0  0  0
 30 31  1  0  0  0
 31 32  1  0  0  0
 31 36  2  0  0  0
 32 33  2  0  0  0
 33 34  1  0  0  0
 34 35  2  0  0  0
 35 36  1  0  0  0
 23 24  2  0  0  0
 24 25  1  0  0  0
 25 28  1  0  0  0
 28 29  1  0  0  0
M  END
> <minimizedAffinity>
-8.94179

$$$$
