CHEMBL3900551


 37 40  0  0  0  0  0  0  0  0999 V2000
  -29.4280   -7.2954   -6.0438 N   0  0  0  0  0  0  0  0  0  0  0  0
  -29.2113   -5.8818   -6.2605 C   0  0  0  0  0  0  0  0  0  0  0  0
  -29.3875   -4.9608   -5.1996 C   0  0  0  0  0  0  0  0  0  0  0  0
  -29.0874   -3.6082   -5.3545 C   0  0  0  0  0  0  0  0  0  0  0  0
  -28.5939   -3.1383   -6.5686 C   0  0  0  0  0  0  0  0  0  0  0  0
  -28.2547   -1.8329   -6.7133 N   0  0  0  0  0  0  0  0  0  0  0  0
  -27.7432   -1.3633   -7.8801 C   0  0  0  0  0  0  0  0  0  0  0  0
  -27.5682   -2.2369   -8.9672 C   0  0  0  0  0  0  0  0  0  0  0  0
  -27.9142   -3.5476   -8.8191 N   0  0  0  0  0  0  0  0  0  0  0  0
  -28.4169   -4.0224   -7.6457 C   0  0  0  0  0  0  0  0  0  0  0  0
  -28.7256   -5.3778   -7.4941 C   0  0  0  0  0  0  0  0  0  0  0  0
  -27.0091   -1.7637  -10.2484 C   0  0  0  0  0  0  0  0  0  0  0  0
  -27.7077   -1.4884  -11.4125 C   0  0  0  0  0  0  0  0  0  0  0  0
  -26.8405   -1.0808  -12.3596 N   0  0  0  0  0  0  0  0  0  0  0  0
  -25.6244   -1.0924  -11.8294 N   0  0  0  0  0  0  0  0  0  0  0  0
  -24.4110   -0.7217  -12.5465 C   0  0  0  0  0  0  0  0  0  0  0  0
  -25.6832   -1.5015  -10.5504 C   0  0  0  0  0  0  0  0  0  0  0  0
  -26.9187  -10.1293   -6.4669 C   0  0  0  0  0  0  0  0  0  0  0  0
  -27.9934   -9.2428   -6.7098 C   0  0  0  0  0  0  0  0  0  0  0  0
  -28.3086   -8.1932   -5.8023 C   0  0  0  0  0  0  0  0  0  0  0  0
  -27.4762   -8.0443   -4.6690 C   0  0  0  0  0  0  0  0  0  0  0  0
  -26.4091   -8.9171   -4.4368 C   0  0  0  0  0  0  0  0  0  0  0  0
  -25.6276   -8.7619   -3.3387 F   0  0  0  0  0  0  0  0  0  0  0  0
  -26.1383   -9.9547   -5.3242 C   0  0  0  0  0  0  0  0  0  0  0  0
  -25.1057  -10.8002   -5.0732 F   0  0  0  0  0  0  0  0  0  0  0  0
  -25.6932  -11.1812   -8.3172 C   0  0  0  0  0  0  0  0  0  0  0  0
  -26.6058  -11.1706   -7.2839 O   0  0  0  0  0  0  0  0  0  0  0  0
  -30.8120   -7.8047   -6.0770 C   0  0  0  0  0  0  0  0  0  0  0  0
  -31.3422   -8.0883   -7.5094 C   0  0  0  0  0  0  0  0  0  0  0  0
  -31.3933   -9.5549   -7.9594 C   0  0  0  0  0  0  0  0  0  0  0  0
  -30.7477   -9.6449   -9.2810 N   0  0  0  0  0  0  0  0  0  0  0  0
  -30.1945   -8.7692   -9.4408 H   0  0  0  0  0  0  0  0  0  0  0  0
  -29.8377  -10.7898   -9.4018 C   0  0  0  0  0  0  0  0  0  0  0  0
  -28.7646  -10.5370  -10.4891 C   0  0  0  0  0  0  0  0  0  0  0  0
  -29.3339  -10.2138  -11.7107 F   0  0  0  0  0  0  0  0  0  0  0  0
  -27.9391   -9.4948  -10.1044 F   0  0  0  0  0  0  0  0  0  0  0  0
  -27.9883  -11.6695  -10.6609 F   0  0  0  0  0  0  0  0  0  0  0  0
 26 27  1  0  0  0
 27 18  1  0  0  0
 18 19  1  0  0  0
 18 24  2  0  0  0
 19 20  2  0  0  0
 20  1  1  0  0  0
 20 21  1  0  0  0
  1 28  1  0  0  0
  1  2  1  0  0  0
 28 29  1  0  0  0
 29 30  1  0  0  0
 30 31  1  0  0  0
 31 33  1  0  0  0
 31 32  1  0  0  0
 33 34  1  0  0  0
 34 35  1  0  0  0
 34 36  1  0  0  0
 34 37  1  0  0  0
  2  3  1  0  0  0
  2 11  2  0  0  0
  3  4  2  0  0  0
  4  5  1  0  0  0
  5  6  1  0  0  0
  5 10  2  0  0  0
  6  7  2  0  0  0
  7  8  1  0  0  0
  8 12  1  0  0  0
  8  9  2  0  0  0
 12 13  1  0  0  0
 12 17  2  0  0  0
 13 14  2  0  0  0
 14 15  1  0  0  0
 15 16  1  0  0  0
 15 17  1  0  0  0
  9 10  1  0  0  0
 10 11  1  0  0  0
 21 22  2  0  0  0
 22 23  1  0  0  0
 22 24  1  0  0  0
 24 25  1  0  0  0
M  END
> <minimizedAffinity>
-8.07924

$$$$
