CHEMBL270547


 36 40  0  0  0  0  0  0  0  0999 V2000
  -26.9674   -2.1468  -10.5785 C   0  0  0  0  0  0  0  0  0  0  0  0
  -25.7043   -1.6748  -10.2297 C   0  0  0  0  0  0  0  0  0  0  0  0
  -24.8334   -1.1735  -11.2071 C   0  0  0  0  0  0  0  0  0  0  0  0
  -25.1779   -1.1781  -12.5811 C   0  0  0  0  0  0  0  0  0  0  0  0
  -24.3495   -0.7325  -13.6522 C   0  0  0  0  0  0  0  0  0  0  0  0
  -24.8167   -0.7676  -14.9813 C   0  0  0  0  0  0  0  0  0  0  0  0
  -26.0856   -1.2420  -15.2788 C   0  0  0  0  0  0  0  0  0  0  0  0
  -26.9105   -1.6724  -14.2480 C   0  0  0  0  0  0  0  0  0  0  0  0
  -26.4829   -1.6401  -12.9120 C   0  0  0  0  0  0  0  0  0  0  0  0
  -27.3703   -2.0675  -11.9090 C   0  0  0  0  0  0  0  0  0  0  0  0
  -23.0160   -0.0870  -13.5006 C   0  0  0  0  0  0  0  0  0  0  0  0
  -22.5208   -0.1212  -12.3774 O   0  0  0  0  0  0  0  0  0  0  0  0
  -22.4798    0.5685  -14.5935 N   0  0  0  0  0  0  0  0  0  0  0  0
  -23.0485    0.6704  -15.4306 H   0  0  0  0  0  0  0  0  0  0  0  0
  -21.2305    1.2487  -14.6130 C   0  0  0  0  0  0  0  0  0  0  0  0
  -20.0289    0.6519  -15.0077 C   0  0  0  0  0  0  0  0  0  0  0  0
  -18.8227    1.3622  -14.9728 C   0  0  0  0  0  0  0  0  0  0  0  0
  -18.8013    2.6876  -14.5521 C   0  0  0  0  0  0  0  0  0  0  0  0
  -19.9914    3.3056  -14.1754 C   0  0  0  0  0  0  0  0  0  0  0  0
  -21.1886    2.5915  -14.2146 C   0  0  0  0  0  0  0  0  0  0  0  0
  -22.3226    3.2082  -13.8452 F   0  0  0  0  0  0  0  0  0  0  0  0
  -27.7115   -2.6645   -9.5388 O   0  0  0  0  0  0  0  0  0  0  0  0
  -29.2722   -3.4089   -4.6469 C   0  0  0  0  0  0  0  0  0  0  0  0
  -28.9259   -2.0610   -4.8466 C   0  0  0  0  0  0  0  0  0  0  0  0
  -28.4768   -1.5775   -6.0687 C   0  0  0  0  0  0  0  0  0  0  0  0
  -28.2862   -0.2527   -6.1981 N   0  0  0  0  0  0  0  0  0  0  0  0
  -27.9249    0.2265   -7.4063 C   0  0  0  0  0  0  0  0  0  0  0  0
  -27.7512   -0.5687   -8.5244 C   0  0  0  0  0  0  0  0  0  0  0  0
  -27.9442   -1.9368   -8.3875 C   0  0  0  0  0  0  0  0  0  0  0  0
  -28.2786   -2.4838   -7.1253 C   0  0  0  0  0  0  0  0  0  0  0  0
  -28.4523   -3.8589   -6.8620 C   0  0  0  0  0  0  0  0  0  0  0  0
  -29.0111   -4.3232   -5.6682 C   0  0  0  0  0  0  0  0  0  0  0  0
  -31.2374   -4.0908   -3.5024 C   0  0  0  0  0  0  0  0  0  0  0  0
  -29.8304   -3.8520   -3.4776 O   0  0  0  0  0  0  0  0  0  0  0  0
  -29.2426   -5.6690   -5.7135 O   0  0  0  0  0  0  0  0  0  0  0  0
  -28.3153   -6.5507   -5.1045 C   0  0  0  0  0  0  0  0  0  0  0  0
 33 34  1  0  0  0
 34 23  1  0  0  0
 23 24  1  0  0  0
 23 32  2  0  0  0
 24 25  2  0  0  0
 25 26  1  0  0  0
 25 30  1  0  0  0
 26 27  2  0  0  0
 27 28  1  0  0  0
 28 29  2  0  0  0
 29 22  1  0  0  0
 29 30  1  0  0  0
 22  1  1  0  0  0
  1  2  1  0  0  0
  1 10  2  0  0  0
  2  3  2  0  0  0
  3  4  1  0  0  0
  4  5  1  0  0  0
  4  9  2  0  0  0
  5 11  1  0  0  0
  5  6  2  0  0  0
 11 12  2  0  0  0
 11 13  1  0  0  0
 13 15  1  0  0  0
 13 14  1  0  0  0
 15 16  1  0  0  0
 15 20  2  0  0  0
 16 17  2  0  0  0
 17 18  1  0  0  0
 18 19  2  0  0  0
 19 20  1  0  0  0
 20 21  1  0  0  0
  6  7  1  0  0  0
  7  8  2  0  0  0
  8  9  1  0  0  0
  9 10  1  0  0  0
 30 31  2  0  0  0
 31 32  1  0  0  0
 32 35  1  0  0  0
 35 36  1  0  0  0
M  END
> <minimizedAffinity>
-10.49801

$$$$
