CHEMBL1095131


 31 34  0  0  0  0  0  0  0  0999 V2000
  -27.9338   -1.7780  -15.0975 N   0  0  0  0  0  0  0  0  0  0  0  0
  -27.3823   -1.7851  -13.8312 C   0  0  0  0  0  0  0  0  0  0  0  0
  -26.0561   -1.6038  -13.7656 N   0  0  0  0  0  0  0  0  0  0  0  0
  -25.4442   -1.5087  -12.5571 C   0  0  0  0  0  0  0  0  0  0  0  0
  -26.2451   -1.6294  -11.4130 C   0  0  0  0  0  0  0  0  0  0  0  0
  -26.0540   -1.5517  -10.0053 C   0  0  0  0  0  0  0  0  0  0  0  0
  -27.2968   -1.6528   -9.4029 C   0  0  0  0  0  0  0  0  0  0  0  0
  -28.2051   -1.9390  -10.3989 N   0  0  0  0  0  0  0  0  0  0  0  0
  -27.5913   -1.8675  -11.6202 C   0  0  0  0  0  0  0  0  0  0  0  0
  -28.2140   -1.9729  -12.8004 N   0  0  0  0  0  0  0  0  0  0  0  0
  -27.2159   -1.9535  -15.7853 H   0  0  0  0  0  0  0  0  0  0  0  0
  -28.7717   -2.3388  -15.1252 H   0  0  0  0  0  0  0  0  0  0  0  0
  -29.1971   -2.0987  -10.2786 H   0  0  0  0  0  0  0  0  0  0  0  0
  -24.0787   -1.2113  -12.4652 N   0  0  0  0  0  0  0  0  0  0  0  0
  -23.5165   -1.9536  -12.0748 H   0  0  0  0  0  0  0  0  0  0  0  0
  -23.3455   -0.1841  -13.0774 C   0  0  0  0  0  0  0  0  0  0  0  0
  -23.6778    1.1696  -12.9294 C   0  0  0  0  0  0  0  0  0  0  0  0
  -22.9283    2.1710  -13.5534 C   0  0  0  0  0  0  0  0  0  0  0  0
  -21.8101    1.8290  -14.3077 C   0  0  0  0  0  0  0  0  0  0  0  0
  -21.4539    0.4919  -14.4255 C   0  0  0  0  0  0  0  0  0  0  0  0
  -20.3646    0.1615  -15.1322 F   0  0  0  0  0  0  0  0  0  0  0  0
  -22.2072   -0.5108  -13.8227 C   0  0  0  0  0  0  0  0  0  0  0  0
  -27.7060   -1.4308   -7.9843 C   0  0  0  0  0  0  0  0  0  0  0  0
  -28.4400   -2.5978   -7.3699 C   0  0  0  0  0  0  0  0  0  0  0  0
  -28.3225   -3.8647   -7.9722 C   0  0  0  0  0  0  0  0  0  0  0  0
  -28.9768   -4.9750   -7.4361 C   0  0  0  0  0  0  0  0  0  0  0  0
  -29.7590   -4.8299   -6.2943 C   0  0  0  0  0  0  0  0  0  0  0  0
  -30.5709   -6.1969   -5.6376 Cl  0  0  0  0  0  0  0  0  0  0  0  0
  -29.8914   -3.5869   -5.6820 C   0  0  0  0  0  0  0  0  0  0  0  0
  -29.2382   -2.4748   -6.2203 C   0  0  0  0  0  0  0  0  0  0  0  0
  -29.4466   -0.9601   -5.4134 Cl  0  0  0  0  0  0  0  0  0  0  0  0
  1  2  1  0  0  0
  1 11  1  0  0  0
  1 12  1  0  0  0
  2  3  1  0  0  0
  2 10  2  0  0  0
  3  4  2  0  0  0
  4 14  1  0  0  0
  4  5  1  0  0  0
 14 16  1  0  0  0
 14 15  1  0  0  0
 16 17  1  0  0  0
 16 22  2  0  0  0
 17 18  2  0  0  0
 18 19  1  0  0  0
 19 20  2  0  0  0
 20 21  1  0  0  0
 20 22  1  0  0  0
  5  6  1  0  0  0
  5  9  2  0  0  0
  6  7  2  0  0  0
  7 23  1  0  0  0
  7  8  1  0  0  0
 23 24  1  0  0  0
 24 25  1  0  0  0
 24 30  2  0  0  0
 25 26  2  0  0  0
 26 27  1  0  0  0
 27 28  1  0  0  0
 27 29  2  0  0  0
 29 30  1  0  0  0
 30 31  1  0  0  0
  8  9  1  0  0  0
  8 13  1  0  0  0
  9 10  1  0  0  0
M  END
> <minimizedAffinity>
-9.53537

$$$$
