CHEMBL3758380


 34 36  0  0  0  0  0  0  0  0999 V2000
  -27.8211   -1.6518   -5.7049 C   0  0  0  0  0  0  0  0  0  0  0  0
  -28.1439   -2.4750   -4.6200 C   0  0  0  0  0  0  0  0  0  0  0  0
  -28.6204   -3.7613   -4.7881 C   0  0  0  0  0  0  0  0  0  0  0  0
  -28.8001   -4.5055   -3.6926 N   0  0  0  0  0  0  0  0  0  0  0  0
  -29.2104   -5.7570   -3.8897 C   0  0  0  0  0  0  0  0  0  0  0  0
  -29.4579   -6.3230   -5.0701 N   0  0  0  0  0  0  0  0  0  0  0  0
  -29.2797   -5.5607   -6.1683 C   0  0  0  0  0  0  0  0  0  0  0  0
  -28.8596   -4.2259   -6.0839 C   0  0  0  0  0  0  0  0  0  0  0  0
  -28.6708   -3.3553   -7.1842 C   0  0  0  0  0  0  0  0  0  0  0  0
  -28.1243   -2.0846   -7.0053 C   0  0  0  0  0  0  0  0  0  0  0  0
  -28.1182    0.5919   -4.9910 C   0  0  0  0  0  0  0  0  0  0  0  0
  -27.2545   -0.4210   -5.5108 O   0  0  0  0  0  0  0  0  0  0  0  0
  -29.4880   -6.1494   -7.4468 N   0  0  0  0  0  0  0  0  0  0  0  0
  -28.6482   -6.0403   -8.0042 H   0  0  0  0  0  0  0  0  0  0  0  0
  -30.0988   -7.4083   -7.6343 C   0  0  0  0  0  0  0  0  0  0  0  0
  -29.3876   -8.4581   -8.2378 C   0  0  0  0  0  0  0  0  0  0  0  0
  -30.0042   -9.6809   -8.5023 C   0  0  0  0  0  0  0  0  0  0  0  0
  -31.3337   -9.8587   -8.1459 C   0  0  0  0  0  0  0  0  0  0  0  0
  -31.9396  -11.0193   -8.4253 F   0  0  0  0  0  0  0  0  0  0  0  0
  -32.0492   -8.8470   -7.5134 C   0  0  0  0  0  0  0  0  0  0  0  0
  -31.4286   -7.6226   -7.2467 C   0  0  0  0  0  0  0  0  0  0  0  0
  -27.9490   -1.3847   -8.1758 O   0  0  0  0  0  0  0  0  0  0  0  0
  -27.2506   -2.1095   -9.1824 C   0  0  0  0  0  0  0  0  0  0  0  0
  -27.5511   -1.5494  -10.5728 C   0  0  0  0  0  0  0  0  0  0  0  0
  -26.2509   -1.5641  -11.3752 C   0  0  0  0  0  0  0  0  0  0  0  0
  -26.4471   -1.4677  -12.8831 C   0  0  0  0  0  0  0  0  0  0  0  0
  -25.0971   -1.6357  -13.5879 C   0  0  0  0  0  0  0  0  0  0  0  0
  -23.9527   -1.0905  -12.7432 C   0  0  0  0  0  0  0  0  0  0  0  0
  -23.2163    0.0381  -13.4394 C   0  0  0  0  0  0  0  0  0  0  0  0
  -22.2970   -0.1101  -14.2358 O   0  0  0  0  0  0  0  0  0  0  0  0
  -23.6784    1.2819  -13.0764 N   0  0  0  0  0  0  0  0  0  0  0  0
  -23.1069    2.3724  -13.7666 O   0  0  0  0  0  0  0  0  0  0  0  0
  -24.6041    1.4310  -12.6839 H   0  0  0  0  0  0  0  0  0  0  0  0
  -22.4330    1.9349  -14.3325 H   0  0  0  0  0  0  0  0  0  0  0  0
 11 12  1  0  0  0
 12  1  1  0  0  0
  1  2  1  0  0  0
  1 10  2  0  0  0
  2  3  2  0  0  0
  3  4  1  0  0  0
  3  8  1  0  0  0
  4  5  2  0  0  0
  5  6  1  0  0  0
  6  7  2  0  0  0
  7 13  1  0  0  0
  7  8  1  0  0  0
 13 15  1  0  0  0
 13 14  1  0  0  0
 15 16  1  0  0  0
 15 21  2  0  0  0
 16 17  2  0  0  0
 17 18  1  0  0  0
 18 19  1  0  0  0
 18 20  2  0  0  0
 20 21  1  0  0  0
  8  9  2  0  0  0
  9 10  1  0  0  0
 10 22  1  0  0  0
 22 23  1  0  0  0
 23 24  1  0  0  0
 24 25  1  0  0  0
 25 26  1  0  0  0
 26 27  1  0  0  0
 27 28  1  0  0  0
 28 29  1  0  0  0
 29 30  2  0  0  0
 29 31  1  0  0  0
 31 32  1  0  0  0
 31 33  1  0  0  0
 32 34  1  0  0  0
M  END
> <minimizedAffinity>
-8.61898

$$$$
