CHEMBL211327


 31 35  0  0  0  0  0  0  0  0999 V2000
  -28.6212   -3.6747   -8.0251 C   0  0  0  0  0  0  0  0  0  0  0  0
  -27.8795   -4.8080   -8.3776 C   0  0  0  0  0  0  0  0  0  0  0  0
  -28.2973   -6.0949   -8.0206 C   0  0  0  0  0  0  0  0  0  0  0  0
  -29.4745   -6.2853   -7.2887 C   0  0  0  0  0  0  0  0  0  0  0  0
  -30.1613   -5.1515   -6.8480 C   0  0  0  0  0  0  0  0  0  0  0  0
  -29.7671   -3.8685   -7.2474 C   0  0  0  0  0  0  0  0  0  0  0  0
  -29.9665   -7.6471   -7.0172 C   0  0  0  0  0  0  0  0  0  0  0  0
  -31.0805   -8.0420   -7.6527 N   0  0  0  0  0  0  0  0  0  0  0  0
  -31.4585   -9.5849   -7.2118 S   0  0  0  0  0  0  0  0  0  0  0  0
  -30.1588   -9.7891   -6.1411 C   0  0  0  0  0  0  0  0  0  0  0  0
  -29.9596  -10.9322   -5.4658 N   0  0  0  0  0  0  0  0  0  0  0  0
  -28.8834  -10.8645   -4.6829 C   0  0  0  0  0  0  0  0  0  0  0  0
  -28.0672   -9.8150   -4.5133 N   0  0  0  0  0  0  0  0  0  0  0  0
  -28.3121   -8.6778   -5.1947 C   0  0  0  0  0  0  0  0  0  0  0  0
  -27.4341   -7.6389   -4.9159 N   0  0  0  0  0  0  0  0  0  0  0  0
  -29.3987   -8.6279   -6.0915 C   0  0  0  0  0  0  0  0  0  0  0  0
  -26.8595   -7.8714   -4.1124 H   0  0  0  0  0  0  0  0  0  0  0  0
  -27.8576   -6.7190   -4.8847 H   0  0  0  0  0  0  0  0  0  0  0  0
  -28.3151   -2.3793   -8.4781 N   0  0  0  0  0  0  0  0  0  0  0  0
  -28.7844   -1.6231   -8.0064 H   0  0  0  0  0  0  0  0  0  0  0  0
  -23.5041   -0.5260  -13.5333 C   0  0  0  0  0  0  0  0  0  0  0  0
  -24.7544   -1.0051  -12.8556 C   0  0  0  0  0  0  0  0  0  0  0  0
  -25.8763   -1.4088  -13.6032 C   0  0  0  0  0  0  0  0  0  0  0  0
  -27.0686   -1.8641  -13.0014 C   0  0  0  0  0  0  0  0  0  0  0  0
  -28.2520   -2.2879  -13.8092 C   0  0  0  0  0  0  0  0  0  0  0  0
  -27.0430   -1.8739  -11.6073 C   0  0  0  0  0  0  0  0  0  0  0  0
  -28.0411   -2.2582  -10.7536 O   0  0  0  0  0  0  0  0  0  0  0  0
  -27.5076   -2.0583   -9.5048 C   0  0  0  0  0  0  0  0  0  0  0  0
  -26.2721   -1.6085   -9.5094 N   0  0  0  0  0  0  0  0  0  0  0  0
  -25.9658   -1.4832  -10.8321 C   0  0  0  0  0  0  0  0  0  0  0  0
  -24.7937   -1.0431  -11.4520 C   0  0  0  0  0  0  0  0  0  0  0  0
 21 22  1  0  0  0
 22 23  1  0  0  0
 22 31  2  0  0  0
 23 24  2  0  0  0
 24 25  1  0  0  0
 24 26  1  0  0  0
 26 27  1  0  0  0
 26 30  2  0  0  0
 27 28  1  0  0  0
 28 19  1  0  0  0
 28 29  2  0  0  0
 19  1  1  0  0  0
 19 20  1  0  0  0
  1  2  1  0  0  0
  1  6  2  0  0  0
  2  3  2  0  0  0
  3  4  1  0  0  0
  4  7  1  0  0  0
  4  5  2  0  0  0
  7  8  2  0  0  0
  7 16  1  0  0  0
  8  9  1  0  0  0
  9 10  1  0  0  0
 10 11  1  0  0  0
 10 16  2  0  0  0
 11 12  2  0  0  0
 12 13  1  0  0  0
 13 14  2  0  0  0
 14 15  1  0  0  0
 14 16  1  0  0  0
 15 17  1  0  0  0
 15 18  1  0  0  0
  5  6  1  0  0  0
 29 30  1  0  0  0
 30 31  1  0  0  0
M  END
> <minimizedAffinity>
-9.24625

$$$$
