CHEMBL185059


 34 37  0  0  0  0  0  0  0  0999 V2000
  -28.4334   -1.9452   -8.4146 C   0  0  0  0  0  0  0  0  0  0  0  0
  -29.0950   -3.1358   -8.6371 C   0  0  0  0  0  0  0  0  0  0  0  0
  -29.3898   -3.9722   -7.5562 C   0  0  0  0  0  0  0  0  0  0  0  0
  -29.1869   -3.6041   -6.2036 C   0  0  0  0  0  0  0  0  0  0  0  0
  -28.5159   -2.3715   -5.9841 C   0  0  0  0  0  0  0  0  0  0  0  0
  -28.1184   -1.5870   -7.1049 C   0  0  0  0  0  0  0  0  0  0  0  0
  -29.7597   -4.4868   -5.1404 C   0  0  0  0  0  0  0  0  0  0  0  0
  -30.9819   -4.2044   -4.4916 C   0  0  0  0  0  0  0  0  0  0  0  0
  -31.6221   -5.1270   -3.6314 C   0  0  0  0  0  0  0  0  0  0  0  0
  -31.0277   -6.3424   -3.3227 C   0  0  0  0  0  0  0  0  0  0  0  0
  -29.7835   -6.5762   -3.8644 C   0  0  0  0  0  0  0  0  0  0  0  0
  -29.1436   -5.6859   -4.7411 C   0  0  0  0  0  0  0  0  0  0  0  0
  -27.8033   -6.2661   -5.0919 C   0  0  0  0  0  0  0  0  0  0  0  0
  -27.7981   -7.5408   -4.4254 N   0  0  0  0  0  0  0  0  0  0  0  0
  -28.9212   -7.7464   -3.6622 C   0  0  0  0  0  0  0  0  0  0  0  0
  -29.1519   -8.6980   -2.9469 O   0  0  0  0  0  0  0  0  0  0  0  0
  -27.0134   -8.1775   -4.3806 H   0  0  0  0  0  0  0  0  0  0  0  0
  -26.7535   -0.6135  -11.3305 N   0  0  0  0  0  0  0  0  0  0  0  0
  -26.9542   -1.4798  -10.2725 C   0  0  0  0  0  0  0  0  0  0  0  0
  -26.2689   -2.4738  -10.0252 O   0  0  0  0  0  0  0  0  0  0  0  0
  -28.0662   -1.1428   -9.5193 N   0  0  0  0  0  0  0  0  0  0  0  0
  -27.2354    0.2706  -11.2840 H   0  0  0  0  0  0  0  0  0  0  0  0
  -28.8260   -0.7747  -10.0741 H   0  0  0  0  0  0  0  0  0  0  0  0
  -22.2478    0.4315  -13.1150 C   0  0  0  0  0  0  0  0  0  0  0  0
  -23.5759   -0.2569  -13.2452 C   0  0  0  0  0  0  0  0  0  0  0  0
  -23.8456   -1.0339  -14.3762 C   0  0  0  0  0  0  0  0  0  0  0  0
  -25.0755   -1.6649  -14.5124 C   0  0  0  0  0  0  0  0  0  0  0  0
  -26.0454   -1.5289  -13.5189 C   0  0  0  0  0  0  0  0  0  0  0  0
  -25.8006   -0.7734  -12.3695 C   0  0  0  0  0  0  0  0  0  0  0  0
  -24.5589   -0.1303  -12.2433 C   0  0  0  0  0  0  0  0  0  0  0  0
  -28.1402   -1.7577   -4.6468 C   0  0  0  0  0  0  0  0  0  0  0  0
  -28.0471   -2.6051   -3.5904 F   0  0  0  0  0  0  0  0  0  0  0  0
  -26.9437   -1.1039   -4.7056 F   0  0  0  0  0  0  0  0  0  0  0  0
  -29.0460   -0.8164   -4.2432 F   0  0  0  0  0  0  0  0  0  0  0  0
 24 25  1  0  0  0
 25 26  1  0  0  0
 25 30  2  0  0  0
 26 27  2  0  0  0
 27 28  1  0  0  0
 28 29  2  0  0  0
 29 18  1  0  0  0
 29 30  1  0  0  0
 18 19  1  0  0  0
 18 22  1  0  0  0
 19 20  2  0  0  0
 19 21  1  0  0  0
 21  1  1  0  0  0
 21 23  1  0  0  0
  1  2  1  0  0  0
  1  6  2  0  0  0
  2  3  2  0  0  0
  3  4  1  0  0  0
  4  7  1  0  0  0
  4  5  2  0  0  0
  7  8  1  0  0  0
  7 12  2  0  0  0
  8  9  2  0  0  0
  9 10  1  0  0  0
 10 11  2  0  0  0
 11 12  1  0  0  0
 11 15  1  0  0  0
 12 13  1  0  0  0
 13 14  1  0  0  0
 14 15  1  0  0  0
 14 17  1  0  0  0
 15 16  2  0  0  0
  5 31  1  0  0  0
  5  6  1  0  0  0
 31 32  1  0  0  0
 31 33  1  0  0  0
 31 34  1  0  0  0
M  END
> <minimizedAffinity>
-10.52581

$$$$
