CHEMBL220523


 24 26  0  0  0  0  0  0  0  0999 V2000
  -30.4503   -9.3018   -8.4796 C   0  0  0  0  0  0  0  0  0  0  0  0
  -31.6371  -10.0151   -8.3474 C   0  0  0  0  0  0  0  0  0  0  0  0
  -31.7726  -11.3382   -8.7675 N   0  0  0  0  0  0  0  0  0  0  0  0
  -32.7090   -9.5378   -7.6925 N   0  0  0  0  0  0  0  0  0  0  0  0
  -32.5973   -8.3098   -7.1830 C   0  0  0  0  0  0  0  0  0  0  0  0
  -31.5143   -7.5334   -7.2573 N   0  0  0  0  0  0  0  0  0  0  0  0
  -30.4302   -8.0594   -7.8708 C   0  0  0  0  0  0  0  0  0  0  0  0
  -31.3504  -11.4850   -9.6856 H   0  0  0  0  0  0  0  0  0  0  0  0
  -32.7411  -11.6259   -8.6943 H   0  0  0  0  0  0  0  0  0  0  0  0
  -29.4311  -10.0635  -10.5205 N   0  0  0  0  0  0  0  0  0  0  0  0
  -29.3123   -9.8283   -9.2492 C   0  0  0  0  0  0  0  0  0  0  0  0
  -27.1758   -9.7148  -10.5847 C   0  0  0  0  0  0  0  0  0  0  0  0
  -28.2301  -10.5609  -11.0406 O   0  0  0  0  0  0  0  0  0  0  0  0
  -29.2633   -7.2890   -7.8959 O   0  0  0  0  0  0  0  0  0  0  0  0
  -29.0275   -6.4767   -6.7989 C   0  0  0  0  0  0  0  0  0  0  0  0
  -28.4868   -6.9680   -5.6104 C   0  0  0  0  0  0  0  0  0  0  0  0
  -28.3621   -6.1359   -4.4958 C   0  0  0  0  0  0  0  0  0  0  0  0
  -28.7067   -4.7961   -4.5467 C   0  0  0  0  0  0  0  0  0  0  0  0
  -28.5880   -4.0566   -3.4301 N   0  0  0  0  0  0  0  0  0  0  0  0
  -28.9120   -2.7489   -3.4981 C   0  0  0  0  0  0  0  0  0  0  0  0
  -29.3369   -2.1253   -4.6580 C   0  0  0  0  0  0  0  0  0  0  0  0
  -29.4625   -2.8955   -5.8075 C   0  0  0  0  0  0  0  0  0  0  0  0
  -29.1646   -4.2677   -5.7741 C   0  0  0  0  0  0  0  0  0  0  0  0
  -29.3212   -5.1143   -6.8980 C   0  0  0  0  0  0  0  0  0  0  0  0
 12 13  1  0  0  0
 13 10  1  0  0  0
 10 11  2  0  0  0
 11  1  1  0  0  0
  1  2  1  0  0  0
  1  7  2  0  0  0
  2  3  1  0  0  0
  2  4  2  0  0  0
  3  8  1  0  0  0
  3  9  1  0  0  0
  4  5  1  0  0  0
  5  6  2  0  0  0
  6  7  1  0  0  0
  7 14  1  0  0  0
 14 15  1  0  0  0
 15 16  1  0  0  0
 15 24  2  0  0  0
 16 17  2  0  0  0
 17 18  1  0  0  0
 18 19  1  0  0  0
 18 23  2  0  0  0
 19 20  2  0  0  0
 20 21  1  0  0  0
 21 22  2  0  0  0
 22 23  1  0  0  0
 23 24  1  0  0  0
M  END
> <minimizedAffinity>
-7.67723

$$$$
