CHEMBL3893846


 34 37  0  0  0  0  0  0  0  0999 V2000
  -17.7101    0.7525  -14.8809 C   0  0  0  0  0  0  0  0  0  0  0  0
  -19.0638    0.4212  -14.7638 C   0  0  0  0  0  0  0  0  0  0  0  0
  -20.0536    1.4130  -14.5567 C   0  0  0  0  0  0  0  0  0  0  0  0
  -21.4176    1.1661  -14.4246 C   0  0  0  0  0  0  0  0  0  0  0  0
  -22.3252    2.1620  -14.3309 N   0  0  0  0  0  0  0  0  0  0  0  0
  -21.8510    3.4090  -14.3167 C   0  0  0  0  0  0  0  0  0  0  0  0
  -20.5642    3.7508  -14.3616 N   0  0  0  0  0  0  0  0  0  0  0  0
  -19.6893    2.7526  -14.4909 C   0  0  0  0  0  0  0  0  0  0  0  0
  -18.3557    3.0740  -14.6210 C   0  0  0  0  0  0  0  0  0  0  0  0
  -17.3591    2.1124  -14.8873 C   0  0  0  0  0  0  0  0  0  0  0  0
  -15.9675   -0.4912  -13.8296 C   0  0  0  0  0  0  0  0  0  0  0  0
  -16.7216   -0.1940  -15.0051 O   0  0  0  0  0  0  0  0  0  0  0  0
  -21.8723   -0.1818  -14.3710 N   0  0  0  0  0  0  0  0  0  0  0  0
  -21.0661   -0.7896  -14.2668 H   0  0  0  0  0  0  0  0  0  0  0  0
  -22.9758   -0.5897  -13.5966 C   0  0  0  0  0  0  0  0  0  0  0  0
  -22.8261   -0.7873  -12.2179 C   0  0  0  0  0  0  0  0  0  0  0  0
  -23.8732   -1.2867  -11.4483 C   0  0  0  0  0  0  0  0  0  0  0  0
  -25.0943   -1.5839  -12.0555 C   0  0  0  0  0  0  0  0  0  0  0  0
  -26.3316   -2.2638  -11.0626 Cl  0  0  0  0  0  0  0  0  0  0  0  0
  -25.2709   -1.3440  -13.4235 C   0  0  0  0  0  0  0  0  0  0  0  0
  -26.7606   -1.6768  -14.2347 Cl  0  0  0  0  0  0  0  0  0  0  0  0
  -24.2162   -0.8365  -14.1907 C   0  0  0  0  0  0  0  0  0  0  0  0
  -16.0583    2.4828  -15.2139 O   0  0  0  0  0  0  0  0  0  0  0  0
  -15.9684    3.0012  -16.5516 C   0  0  0  0  0  0  0  0  0  0  0  0
  -15.6760    4.4986  -16.6892 C   0  0  0  0  0  0  0  0  0  0  0  0
  -15.0053    4.9127  -17.9963 C   0  0  0  0  0  0  0  0  0  0  0  0
  -13.6411    4.3681  -18.0982 N   0  0  0  0  0  0  0  0  0  0  0  0
  -13.0601    4.7236  -19.3925 C   0  0  0  0  0  0  0  0  0  0  0  0
  -12.7979    4.7253  -16.9136 C   0  0  0  0  0  0  0  0  0  0  0  0
  -11.5098    3.8710  -16.9373 C   0  0  0  0  0  0  0  0  0  0  0  0
  -12.3986    6.2099  -16.8147 C   0  0  0  0  0  0  0  0  0  0  0  0
  -13.5553    4.4178  -15.5927 C   0  0  0  0  0  0  0  0  0  0  0  0
  -13.0353    3.9425  -14.5886 O   0  0  0  0  0  0  0  0  0  0  0  0
  -14.8449    4.8726  -15.5615 O   0  0  0  0  0  0  0  0  0  0  0  0
 11 12  1  0  0  0
 12  1  1  0  0  0
  1  2  1  0  0  0
  1 10  2  0  0  0
  2  3  2  0  0  0
  3  4  1  0  0  0
  3  8  1  0  0  0
  4 13  1  0  0  0
  4  5  2  0  0  0
 13 15  1  0  0  0
 13 14  1  0  0  0
 15 16  1  0  0  0
 15 22  2  0  0  0
 16 17  2  0  0  0
 17 18  1  0  0  0
 18 19  1  0  0  0
 18 20  2  0  0  0
 20 21  1  0  0  0
 20 22  1  0  0  0
  5  6  1  0  0  0
  6  7  2  0  0  0
  7  8  1  0  0  0
  8  9  2  0  0  0
  9 10  1  0  0  0
 10 23  1  0  0  0
 23 24  1  0  0  0
 24 25  1  0  0  0
 25 26  1  0  0  0
 25 34  1  0  0  0
 26 27  1  0  0  0
 27 28  1  0  0  0
 27 29  1  0  0  0
 29 30  1  0  0  0
 29 31  1  0  0  0
 29 32  1  0  0  0
 32 33  2  0  0  0
 32 34  1  0  0  0
M  END
> <minimizedAffinity>
-9.03852

$$$$
