CHEMBL397090


 40 43  0  0  0  0  0  0  0  0999 V2000
  -30.1296  -10.3879   -7.6120 C   0  0  0  0  0  0  0  0  0  0  0  0
  -29.7649   -9.2327   -6.8944 C   0  0  0  0  0  0  0  0  0  0  0  0
  -30.6833   -8.2215   -6.6202 C   0  0  0  0  0  0  0  0  0  0  0  0
  -32.0150   -8.4245   -6.9794 C   0  0  0  0  0  0  0  0  0  0  0  0
  -32.4173   -9.6295   -7.5755 C   0  0  0  0  0  0  0  0  0  0  0  0
  -31.4807  -10.6315   -7.8877 C   0  0  0  0  0  0  0  0  0  0  0  0
  -31.9447  -11.9281   -8.4818 C   0  0  0  0  0  0  0  0  0  0  0  0
  -30.3279   -6.9924   -6.0072 N   0  0  0  0  0  0  0  0  0  0  0  0
  -29.6029   -5.9678   -6.5942 C   0  0  0  0  0  0  0  0  0  0  0  0
  -29.1895   -5.9252   -7.7478 O   0  0  0  0  0  0  0  0  0  0  0  0
  -30.6107   -6.8843   -5.0425 H   0  0  0  0  0  0  0  0  0  0  0  0
  -29.2493   -4.8184   -5.7194 C   0  0  0  0  0  0  0  0  0  0  0  0
  -28.5434   -5.1159   -4.5467 C   0  0  0  0  0  0  0  0  0  0  0  0
  -28.1817   -4.1021   -3.6683 C   0  0  0  0  0  0  0  0  0  0  0  0
  -28.4932   -2.7781   -3.9719 C   0  0  0  0  0  0  0  0  0  0  0  0
  -29.1465   -2.4575   -5.1654 C   0  0  0  0  0  0  0  0  0  0  0  0
  -29.5481   -3.4851   -6.0322 C   0  0  0  0  0  0  0  0  0  0  0  0
  -29.4640   -1.1861   -5.5659 O   0  0  0  0  0  0  0  0  0  0  0  0
  -28.3816   -0.3652   -6.0349 C   0  0  0  0  0  0  0  0  0  0  0  0
  -27.2019   -0.8501   -5.5681 F   0  0  0  0  0  0  0  0  0  0  0  0
  -28.3502   -0.4276   -7.3936 F   0  0  0  0  0  0  0  0  0  0  0  0
  -28.5619    1.0859   -5.5912 C   0  0  0  0  0  0  0  0  0  0  0  0
  -29.8686    1.3567   -5.3203 F   0  0  0  0  0  0  0  0  0  0  0  0
  -27.8777    1.3349   -4.4418 F   0  0  0  0  0  0  0  0  0  0  0  0
  -29.1647  -11.2850   -8.0615 O   0  0  0  0  0  0  0  0  0  0  0  0
  -27.1512  -10.6676   -9.2858 C   0  0  0  0  0  0  0  0  0  0  0  0
  -26.6740  -10.1204  -10.4976 C   0  0  0  0  0  0  0  0  0  0  0  0
  -27.5093   -9.9303  -11.5953 C   0  0  0  0  0  0  0  0  0  0  0  0
  -28.8212  -10.3279  -11.4842 C   0  0  0  0  0  0  0  0  0  0  0  0
  -29.3336  -10.8608  -10.3630 N   0  0  0  0  0  0  0  0  0  0  0  0
  -28.5301  -10.9473   -9.2643 C   0  0  0  0  0  0  0  0  0  0  0  0
  -25.0151  -10.3323   -6.1519 C   0  0  0  0  0  0  0  0  0  0  0  0
  -25.8337   -9.9869   -7.2316 C   0  0  0  0  0  0  0  0  0  0  0  0
  -26.1956  -10.9428   -8.1838 C   0  0  0  0  0  0  0  0  0  0  0  0
  -25.6173  -12.2138   -8.0433 C   0  0  0  0  0  0  0  0  0  0  0  0
  -24.7703  -12.4651   -6.9777 C   0  0  0  0  0  0  0  0  0  0  0  0
  -24.4793  -11.5590   -6.0271 N   0  0  0  0  0  0  0  0  0  0  0  0
  -25.6492   -9.0662   -4.1741 C   0  0  0  0  0  0  0  0  0  0  0  0
  -24.6536   -9.4358   -5.1561 N   0  0  0  0  0  0  0  0  0  0  0  0
  -23.7765   -9.7820   -4.7727 H   0  0  0  0  0  0  0  0  0  0  0  0
 38 39  1  0  0  0
 39 32  1  0  0  0
 39 40  1  0  0  0
 32 33  1  0  0  0
 32 37  2  0  0  0
 33 34  2  0  0  0
 34 26  1  0  0  0
 34 35  1  0  0  0
 26 27  1  0  0  0
 26 31  2  0  0  0
 27 28  2  0  0  0
 28 29  1  0  0  0
 29 30  2  0  0  0
 30 31  1  0  0  0
 31 25  1  0  0  0
 25  1  1  0  0  0
  1  2  1  0  0  0
  1  6  2  0  0  0
  2  3  2  0  0  0
  3  8  1  0  0  0
  3  4  1  0  0  0
  8  9  1  0  0  0
  8 11  1  0  0  0
  9 10  2  0  0  0
  9 12  1  0  0  0
 12 13  1  0  0  0
 12 17  2  0  0  0
 13 14  2  0  0  0
 14 15  1  0  0  0
 15 16  2  0  0  0
 16 18  1  0  0  0
 16 17  1  0  0  0
 18 19  1  0  0  0
 19 20  1  0  0  0
 19 21  1  0  0  0
 19 22  1  0  0  0
 22 23  1  0  0  0
 22 24  1  0  0  0
  4  5  2  0  0  0
  5  6  1  0  0  0
  6  7  1  0  0  0
 35 36  2  0  0  0
 36 37  1  0  0  0
M  END
> <minimizedAffinity>
-9.44082

$$$$
