CHEMBL1681958


 27 28  0  0  0  0  0  0  0  0999 V2000
  -15.5028   -4.8758  -10.4870 O   0  0  0  0  0  0  0  0  0  0  0  0
  -13.4006   -6.0461  -10.6486 C   0  0  0  0  0  0  0  0  0  0  0  0
  -12.1643   -6.2510  -10.0430 C   0  0  0  0  0  0  0  0  0  0  0  0
  -11.2354   -7.1766  -10.5142 N   0  0  0  0  0  0  0  0  0  0  0  0
  -11.7196   -5.5054   -9.0167 N   0  0  0  0  0  0  0  0  0  0  0  0
  -12.5097   -4.5067   -8.6176 C   0  0  0  0  0  0  0  0  0  0  0  0
  -13.6997   -4.2035   -9.1369 N   0  0  0  0  0  0  0  0  0  0  0  0
  -14.1615   -5.0247  -10.1119 C   0  0  0  0  0  0  0  0  0  0  0  0
  -11.6784   -8.0533  -10.7898 H   0  0  0  0  0  0  0  0  0  0  0  0
  -10.4749   -7.2739   -9.8484 H   0  0  0  0  0  0  0  0  0  0  0  0
  -13.8977   -8.1991  -11.6031 N   0  0  0  0  0  0  0  0  0  0  0  0
  -13.8826   -6.9086  -11.7376 C   0  0  0  0  0  0  0  0  0  0  0  0
  -14.0372   -7.9286  -13.8672 C   0  0  0  0  0  0  0  0  0  0  0  0
  -14.3472   -8.8021  -12.7834 O   0  0  0  0  0  0  0  0  0  0  0  0
  -15.7508   -3.8642  -11.4078 C   0  0  0  0  0  0  0  0  0  0  0  0
  -15.4832   -2.5329  -11.0813 C   0  0  0  0  0  0  0  0  0  0  0  0
  -15.5295   -1.5405  -12.0564 C   0  0  0  0  0  0  0  0  0  0  0  0
  -15.9185   -1.8301  -13.3655 C   0  0  0  0  0  0  0  0  0  0  0  0
  -16.3051   -3.1434  -13.6677 C   0  0  0  0  0  0  0  0  0  0  0  0
  -16.2354   -4.1535  -12.6874 C   0  0  0  0  0  0  0  0  0  0  0  0
  -16.7505   -5.7466  -13.1065 Cl  0  0  0  0  0  0  0  0  0  0  0  0
  -15.8991   -0.8513  -14.3851 N   0  0  0  0  0  0  0  0  0  0  0  0
  -16.3439    0.4398  -14.2699 C   0  0  0  0  0  0  0  0  0  0  0  0
  -16.9327    0.9434  -13.3196 O   0  0  0  0  0  0  0  0  0  0  0  0
  -15.5211   -1.0942  -15.2911 H   0  0  0  0  0  0  0  0  0  0  0  0
  -16.0570    1.1411  -15.4042 O   0  0  0  0  0  0  0  0  0  0  0  0
  -17.1355    1.9936  -15.8044 C   0  0  0  0  0  0  0  0  0  0  0  0
 13 14  1  0  0  0
 14 11  1  0  0  0
 11 12  2  0  0  0
 12  2  1  0  0  0
  2  3  1  0  0  0
  2  8  2  0  0  0
  3  4  1  0  0  0
  3  5  2  0  0  0
  4  9  1  0  0  0
  4 10  1  0  0  0
  5  6  1  0  0  0
  6  7  2  0  0  0
  7  8  1  0  0  0
  8  1  1  0  0  0
  1 15  1  0  0  0
 15 16  1  0  0  0
 15 20  2  0  0  0
 16 17  2  0  0  0
 17 18  1  0  0  0
 18 22  1  0  0  0
 18 19  2  0  0  0
 22 23  1  0  0  0
 22 25  1  0  0  0
 23 24  2  0  0  0
 23 26  1  0  0  0
 26 27  1  0  0  0
 19 20  1  0  0  0
 20 21  1  0  0  0
M  END
> <minimizedAffinity>
-6.96091

$$$$
