CHEMBL3605107


 36 40  0  0  0  0  0  0  0  0999 V2000
  -14.8589    3.0604  -15.6783 C   0  0  0  0  0  0  0  0  0  0  0  0
  -16.1494    2.9234  -16.1609 C   0  0  0  0  0  0  0  0  0  0  0  0
  -16.9576    1.8853  -15.9135 N   0  0  0  0  0  0  0  0  0  0  0  0
  -16.5183    0.8619  -15.1610 C   0  0  0  0  0  0  0  0  0  0  0  0
  -17.4885   -0.1076  -14.9576 N   0  0  0  0  0  0  0  0  0  0  0  0
  -15.1836    0.8459  -14.6503 C   0  0  0  0  0  0  0  0  0  0  0  0
  -14.4267   -0.1656  -13.8912 C   0  0  0  0  0  0  0  0  0  0  0  0
  -13.1453    0.2609  -13.6099 C   0  0  0  0  0  0  0  0  0  0  0  0
  -12.8463    1.8395  -14.1214 S   0  0  0  0  0  0  0  0  0  0  0  0
  -14.3827    1.9824  -14.9032 C   0  0  0  0  0  0  0  0  0  0  0  0
  -18.3860    0.2407  -15.2763 H   0  0  0  0  0  0  0  0  0  0  0  0
  -17.4840   -0.5144  -14.0320 H   0  0  0  0  0  0  0  0  0  0  0  0
  -14.8356   -1.5078  -13.4586 C   0  0  0  0  0  0  0  0  0  0  0  0
  -14.5096   -2.6235  -14.2265 C   0  0  0  0  0  0  0  0  0  0  0  0
  -15.0229   -3.8773  -13.9157 C   0  0  0  0  0  0  0  0  0  0  0  0
  -15.6768   -4.0866  -12.7024 C   0  0  0  0  0  0  0  0  0  0  0  0
  -15.9649   -2.9956  -11.8867 C   0  0  0  0  0  0  0  0  0  0  0  0
  -15.5707   -1.7100  -12.2772 C   0  0  0  0  0  0  0  0  0  0  0  0
  -16.0572   -5.3293  -12.2401 O   0  0  0  0  0  0  0  0  0  0  0  0
  -15.1697   -6.3750  -12.3873 C   0  0  0  0  0  0  0  0  0  0  0  0
  -15.2381   -7.3009  -13.4370 C   0  0  0  0  0  0  0  0  0  0  0  0
  -14.4162   -8.4238  -13.4328 C   0  0  0  0  0  0  0  0  0  0  0  0
  -13.4570   -8.5735  -12.4334 C   0  0  0  0  0  0  0  0  0  0  0  0
  -13.3174   -7.5976  -11.4454 C   0  0  0  0  0  0  0  0  0  0  0  0
  -14.1760   -6.4976  -11.4188 C   0  0  0  0  0  0  0  0  0  0  0  0
  -13.0263    5.7469  -17.2251 N   0  0  0  0  0  0  0  0  0  0  0  0
  -13.9625    4.7550  -17.2871 C   0  0  0  0  0  0  0  0  0  0  0  0
  -14.0598    4.2265  -16.0141 C   0  0  0  0  0  0  0  0  0  0  0  0
  -13.1777    5.0224  -15.2516 C   0  0  0  0  0  0  0  0  0  0  0  0
  -12.5568    5.9553  -15.9773 N   0  0  0  0  0  0  0  0  0  0  0  0
  -12.4424    6.4588  -18.3474 C   0  0  0  0  0  0  0  0  0  0  0  0
  -15.3939    8.7268  -19.1520 C   0  0  0  0  0  0  0  0  0  0  0  0
  -14.3668    7.9721  -18.4878 N   0  0  0  0  0  0  0  0  0  0  0  0
  -13.4514    7.2072  -19.1808 C   0  0  0  0  0  0  0  0  0  0  0  0
  -13.3999    7.2000  -20.4112 O   0  0  0  0  0  0  0  0  0  0  0  0
  -14.3960    7.8709  -17.4667 H   0  0  0  0  0  0  0  0  0  0  0  0
 32 33  1  0  0  0
 33 34  1  0  0  0
 33 36  1  0  0  0
 34 35  2  0  0  0
 34 31  1  0  0  0
 31 26  1  0  0  0
 26 27  1  0  0  0
 26 30  1  0  0  0
 27 28  2  0  0  0
 28  1  1  0  0  0
 28 29  1  0  0  0
  1  2  1  0  0  0
  1 10  2  0  0  0
  2  3  2  0  0  0
  3  4  1  0  0  0
  4  5  1  0  0  0
  4  6  2  0  0  0
  5 11  1  0  0  0
  5 12  1  0  0  0
  6  7  1  0  0  0
  6 10  1  0  0  0
  7 13  1  0  0  0
  7  8  2  0  0  0
 13 14  1  0  0  0
 13 18  2  0  0  0
 14 15  2  0  0  0
 15 16  1  0  0  0
 16 19  1  0  0  0
 16 17  2  0  0  0
 19 20  1  0  0  0
 20 21  1  0  0  0
 20 25  2  0  0  0
 21 22  2  0  0  0
 22 23  1  0  0  0
 23 24  2  0  0  0
 24 25  1  0  0  0
 17 18  1  0  0  0
  8  9  1  0  0  0
  9 10  1  0  0  0
 29 30  2  0  0  0
M  END
> <minimizedAffinity>
-7.69347

$$$$
