CHEMBL194929


 34 37  0  0  0  0  0  0  0  0999 V2000
  -12.5928   -3.8621  -12.4601 C   0  0  0  0  0  0  0  0  0  0  0  0
  -11.3094   -3.8860  -12.7094 N   0  0  0  0  0  0  0  0  0  0  0  0
  -10.6970   -2.8170  -13.2932 C   0  0  0  0  0  0  0  0  0  0  0  0
  -11.2648   -1.7259  -13.6797 N   0  0  0  0  0  0  0  0  0  0  0  0
  -12.5830   -1.6891  -13.4452 N   0  0  0  0  0  0  0  0  0  0  0  0
  -13.3758   -0.6510  -13.8105 C   0  0  0  0  0  0  0  0  0  0  0  0
  -14.6538   -0.9149  -13.3825 C   0  0  0  0  0  0  0  0  0  0  0  0
  -14.6559   -2.2223  -12.7616 C   0  0  0  0  0  0  0  0  0  0  0  0
  -13.3242   -2.6669  -12.8272 C   0  0  0  0  0  0  0  0  0  0  0  0
  -15.7814    0.0015  -13.5699 C   0  0  0  0  0  0  0  0  0  0  0  0
  -16.3679    0.6695  -12.5663 N   0  0  0  0  0  0  0  0  0  0  0  0
  -17.4117    1.3446  -13.1979 O   0  0  0  0  0  0  0  0  0  0  0  0
  -17.3549    0.9933  -14.5139 C   0  0  0  0  0  0  0  0  0  0  0  0
  -18.3837    1.5618  -15.4008 C   0  0  0  0  0  0  0  0  0  0  0  0
  -16.3718    0.1694  -14.7965 N   0  0  0  0  0  0  0  0  0  0  0  0
  -15.9045   -2.8981  -12.2211 C   0  0  0  0  0  0  0  0  0  0  0  0
  -16.3026   -4.1610  -12.9845 C   0  0  0  0  0  0  0  0  0  0  0  0
  -15.8864   -3.0911  -10.7050 C   0  0  0  0  0  0  0  0  0  0  0  0
  -13.1503   -4.9661  -11.8573 N   0  0  0  0  0  0  0  0  0  0  0  0
  -13.8921   -4.8336  -11.1895 H   0  0  0  0  0  0  0  0  0  0  0  0
  -12.9895   -8.0686  -13.9503 C   0  0  0  0  0  0  0  0  0  0  0  0
  -13.2216   -6.7390  -13.5682 C   0  0  0  0  0  0  0  0  0  0  0  0
  -12.9821   -6.3083  -12.2565 C   0  0  0  0  0  0  0  0  0  0  0  0
  -12.4906   -7.2510  -11.3405 C   0  0  0  0  0  0  0  0  0  0  0  0
  -12.2371   -6.8724  -10.0784 F   0  0  0  0  0  0  0  0  0  0  0  0
  -12.2488   -8.5733  -11.7033 C   0  0  0  0  0  0  0  0  0  0  0  0
  -12.5001   -8.9734  -13.0103 C   0  0  0  0  0  0  0  0  0  0  0  0
  -12.2622  -10.2503  -13.3460 F   0  0  0  0  0  0  0  0  0  0  0  0
  -14.1418   -7.6311  -16.0382 N   0  0  0  0  0  0  0  0  0  0  0  0
  -13.2657   -8.4457  -15.3573 C   0  0  0  0  0  0  0  0  0  0  0  0
  -12.7547   -9.4648  -15.8119 O   0  0  0  0  0  0  0  0  0  0  0  0
  -14.2691   -6.6591  -15.7730 H   0  0  0  0  0  0  0  0  0  0  0  0
  -13.7602   -6.7943  -18.1432 C   0  0  0  0  0  0  0  0  0  0  0  0
  -14.2819   -7.9059  -17.4178 O   0  0  0  0  0  0  0  0  0  0  0  0
 33 34  1  0  0  0
 34 29  1  0  0  0
 29 30  1  0  0  0
 29 32  1  0  0  0
 30 31  2  0  0  0
 30 21  1  0  0  0
 21 22  1  0  0  0
 21 27  2  0  0  0
 22 23  2  0  0  0
 23 19  1  0  0  0
 23 24  1  0  0  0
 19  1  1  0  0  0
 19 20  1  0  0  0
  1  2  2  0  0  0
  1  9  1  0  0  0
  2  3  1  0  0  0
  3  4  2  0  0  0
  4  5  1  0  0  0
  5  6  1  0  0  0
  5  9  1  0  0  0
  6  7  2  0  0  0
  7 10  1  0  0  0
  7  8  1  0  0  0
 10 11  2  0  0  0
 10 15  1  0  0  0
 11 12  1  0  0  0
 12 13  1  0  0  0
 13 14  1  0  0  0
 13 15  2  0  0  0
  8 16  1  0  0  0
  8  9  2  0  0  0
 16 17  1  0  0  0
 16 18  1  0  0  0
 24 25  1  0  0  0
 24 26  2  0  0  0
 26 27  1  0  0  0
 27 28  1  0  0  0
M  END
> <minimizedAffinity>
-7.66303

$$$$
