CHEMBL2419669


 47 51  0  0  0  0  0  0  0  0999 V2000
  -29.6313  -11.2675   -8.5494 O   0  0  0  0  0  0  0  0  0  0  0  0
  -26.6689  -11.6388   -5.4966 C   0  0  0  0  0  0  0  0  0  0  0  0
  -27.6419  -11.4395   -6.4894 C   0  0  0  0  0  0  0  0  0  0  0  0
  -29.0094  -11.7477   -6.2780 C   0  0  0  0  0  0  0  0  0  0  0  0
  -30.0118  -11.6309   -7.2724 C   0  0  0  0  0  0  0  0  0  0  0  0
  -31.3462  -11.8324   -6.9400 C   0  0  0  0  0  0  0  0  0  0  0  0
  -31.6273  -12.2684   -5.6645 C   0  0  0  0  0  0  0  0  0  0  0  0
  -30.6925  -12.4660   -4.7110 N   0  0  0  0  0  0  0  0  0  0  0  0
  -29.4098  -12.1925   -5.0040 C   0  0  0  0  0  0  0  0  0  0  0  0
  -28.4444  -12.3379   -4.0136 C   0  0  0  0  0  0  0  0  0  0  0  0
  -27.0830  -12.0552   -4.2204 C   0  0  0  0  0  0  0  0  0  0  0  0
  -24.6001  -12.3215   -6.5581 C   0  0  0  0  0  0  0  0  0  0  0  0
  -25.3360  -11.4510   -5.7145 O   0  0  0  0  0  0  0  0  0  0  0  0
  -26.3326  -12.2159   -3.0759 O   0  0  0  0  0  0  0  0  0  0  0  0
  -25.7290  -11.0744   -2.4699 C   0  0  0  0  0  0  0  0  0  0  0  0
  -25.9610   -9.8023   -3.2831 C   0  0  0  0  0  0  0  0  0  0  0  0
  -27.2893   -9.1038   -2.9959 C   0  0  0  0  0  0  0  0  0  0  0  0
  -28.0693   -8.8460   -4.2261 N   0  0  0  0  0  0  0  0  0  0  0  0
  -27.4722   -7.8614   -5.1419 C   0  0  0  0  0  0  0  0  0  0  0  0
  -27.4859   -6.4316   -4.5994 C   0  0  0  0  0  0  0  0  0  0  0  0
  -28.9148   -5.9990   -4.2526 C   0  0  0  0  0  0  0  0  0  0  0  0
  -28.9230   -4.6160   -3.6083 C   0  0  0  0  0  0  0  0  0  0  0  0
  -29.5842   -7.0381   -3.3431 C   0  0  0  0  0  0  0  0  0  0  0  0
  -29.4536   -8.4563   -3.9104 C   0  0  0  0  0  0  0  0  0  0  0  0
  -29.0773  -10.0226   -8.7711 C   0  0  0  0  0  0  0  0  0  0  0  0
  -29.7377   -8.9523   -8.1751 C   0  0  0  0  0  0  0  0  0  0  0  0
  -29.2322   -7.6501   -8.2933 C   0  0  0  0  0  0  0  0  0  0  0  0
  -28.0549   -7.3835   -9.0063 C   0  0  0  0  0  0  0  0  0  0  0  0
  -27.3874   -8.4611   -9.5937 C   0  0  0  0  0  0  0  0  0  0  0  0
  -27.8902   -9.7645   -9.4634 C   0  0  0  0  0  0  0  0  0  0  0  0
  -27.1890  -10.7610  -10.0232 F   0  0  0  0  0  0  0  0  0  0  0  0
  -27.4924   -6.0827   -9.1237 N   0  0  0  0  0  0  0  0  0  0  0  0
  -28.0138   -4.9386   -8.5386 C   0  0  0  0  0  0  0  0  0  0  0  0
  -29.0974   -4.8892   -7.9513 O   0  0  0  0  0  0  0  0  0  0  0  0
  -27.1929   -3.8201   -8.6691 N   0  0  0  0  0  0  0  0  0  0  0  0
  -26.7395   -5.9592   -9.7834 H   0  0  0  0  0  0  0  0  0  0  0  0
  -26.2971   -3.8371   -9.1371 H   0  0  0  0  0  0  0  0  0  0  0  0
  -27.6411   -2.6707   -8.0839 N   0  0  0  0  0  0  0  0  0  0  0  0
  -28.1268   -2.6944   -6.8883 C   0  0  0  0  0  0  0  0  0  0  0  0
  -28.5748   -1.4231   -6.2793 C   0  0  0  0  0  0  0  0  0  0  0  0
  -27.7483   -0.2881   -6.3147 C   0  0  0  0  0  0  0  0  0  0  0  0
  -28.1638    0.9027   -5.7152 C   0  0  0  0  0  0  0  0  0  0  0  0
  -29.4027    0.9518   -5.0828 C   0  0  0  0  0  0  0  0  0  0  0  0
  -29.7975    2.0912   -4.4994 F   0  0  0  0  0  0  0  0  0  0  0  0
  -30.2351   -0.1620   -5.0438 C   0  0  0  0  0  0  0  0  0  0  0  0
  -29.8142   -1.3466   -5.6460 C   0  0  0  0  0  0  0  0  0  0  0  0
  -30.6204   -2.4172   -5.6002 F   0  0  0  0  0  0  0  0  0  0  0  0
 12 13  1  0  0  0
 13  2  1  0  0  0
  2  3  1  0  0  0
  2 11  2  0  0  0
  3  4  2  0  0  0
  4  5  1  0  0  0
  4  9  1  0  0  0
  5  1  1  0  0  0
  5  6  2  0  0  0
  1 25  1  0  0  0
 25 26  1  0  0  0
 25 30  2  0  0  0
 26 27  2  0  0  0
 27 28  1  0  0  0
 28 32  1  0  0  0
 28 29  2  0  0  0
 32 33  1  0  0  0
 32 36  1  0  0  0
 33 34  2  0  0  0
 33 35  1  0  0  0
 35 38  1  0  0  0
 35 37  1  0  0  0
 38 39  2  0  0  0
 39 40  1  0  0  0
 40 41  1  0  0  0
 40 46  2  0  0  0
 41 42  2  0  0  0
 42 43  1  0  0  0
 43 44  1  0  0  0
 43 45  2  0  0  0
 45 46  1  0  0  0
 46 47  1  0  0  0
 29 30  1  0  0  0
 30 31  1  0  0  0
  6  7  1  0  0  0
  7  8  2  0  0  0
  8  9  1  0  0  0
  9 10  2  0  0  0
 10 11  1  0  0  0
 11 14  1  0  0  0
 14 15  1  0  0  0
 15 16  1  0  0  0
 16 17  1  0  0  0
 17 18  1  0  0  0
 18 19  1  0  0  0
 18 24  1  0  0  0
 19 20  1  0  0  0
 20 21  1  0  0  0
 21 22  1  0  0  0
 21 23  1  0  0  0
 23 24  1  0  0  0
M  END
> <minimizedAffinity>
-5.77422

$$$$
