CHEMBL4082743


 39 45  0  0  0  0  0  0  0  0999 V2000
  -26.0800   -1.8904  -11.3071 C   0  0  0  0  0  0  0  0  0  0  0  0
  -24.9910   -1.2089  -10.7806 C   0  0  0  0  0  0  0  0  0  0  0  0
  -24.0486   -0.5649  -11.6156 C   0  0  0  0  0  0  0  0  0  0  0  0
  -24.1645   -0.5369  -13.0197 C   0  0  0  0  0  0  0  0  0  0  0  0
  -25.2674   -1.2421  -13.5453 C   0  0  0  0  0  0  0  0  0  0  0  0
  -25.6226   -1.2593  -15.2449 Cl  0  0  0  0  0  0  0  0  0  0  0  0
  -26.1982   -1.8993  -12.7057 C   0  0  0  0  0  0  0  0  0  0  0  0
  -23.2980    0.2442  -13.8115 N   0  0  0  0  0  0  0  0  0  0  0  0
  -22.9354    1.5710  -13.2780 C   0  0  0  0  0  0  0  0  0  0  0  0
  -22.2960    2.4433  -14.3800 C   0  0  0  0  0  0  0  0  0  0  0  0
  -21.0558    1.8779  -14.9711 N   0  0  0  0  0  0  0  0  0  0  0  0
  -21.3965    0.5164  -15.4586 C   0  0  0  0  0  0  0  0  0  0  0  0
  -22.1590   -0.4395  -14.4787 C   0  0  0  0  0  0  0  0  0  0  0  0
  -19.9085    1.9321  -14.0496 C   0  0  0  0  0  0  0  0  0  0  0  0
  -19.2496    3.3450  -13.9647 C   0  0  0  0  0  0  0  0  0  0  0  0
  -17.7580    3.0714  -14.2154 C   0  0  0  0  0  0  0  0  0  0  0  0
  -17.5609    2.7190  -15.6987 C   0  0  0  0  0  0  0  0  0  0  0  0
  -18.1183    1.2924  -15.7881 C   0  0  0  0  0  0  0  0  0  0  0  0
  -18.6675    1.0433  -14.3734 C   0  0  0  0  0  0  0  0  0  0  0  0
  -17.5756    1.7211  -13.5309 C   0  0  0  0  0  0  0  0  0  0  0  0
  -27.0807   -2.4900  -10.5204 N   0  0  0  0  0  0  0  0  0  0  0  0
  -27.5368   -3.2636  -10.9881 H   0  0  0  0  0  0  0  0  0  0  0  0
  -27.7009   -0.1294   -6.6289 N   0  0  0  0  0  0  0  0  0  0  0  0
  -27.7019   -1.1527   -7.5047 C   0  0  0  0  0  0  0  0  0  0  0  0
  -27.2604   -1.0837   -8.7325 N   0  0  0  0  0  0  0  0  0  0  0  0
  -27.4924   -2.3232   -9.2493 C   0  0  0  0  0  0  0  0  0  0  0  0
  -28.0602   -3.1785   -8.4004 N   0  0  0  0  0  0  0  0  0  0  0  0
  -28.1408   -2.4551   -7.2460 N   0  0  0  0  0  0  0  0  0  0  0  0
  -27.4955    0.7950   -6.9953 H   0  0  0  0  0  0  0  0  0  0  0  0
  -28.3149   -0.1467   -5.8174 H   0  0  0  0  0  0  0  0  0  0  0  0
  -28.5428   -3.0150   -5.9879 C   0  0  0  0  0  0  0  0  0  0  0  0
  -28.1848   -2.3832   -4.8284 N   0  0  0  0  0  0  0  0  0  0  0  0
  -28.4408   -2.9904   -3.6573 C   0  0  0  0  0  0  0  0  0  0  0  0
  -29.0108   -4.1785   -3.4732 N   0  0  0  0  0  0  0  0  0  0  0  0
  -29.3890   -4.7578   -4.6229 C   0  0  0  0  0  0  0  0  0  0  0  0
  -30.1143   -6.3037   -4.5950 S   0  0  0  0  0  0  0  0  0  0  0  0
  -30.3276   -6.2979   -6.2860 C   0  0  0  0  0  0  0  0  0  0  0  0
  -29.8480   -5.1388   -6.8553 C   0  0  0  0  0  0  0  0  0  0  0  0
  -29.2380   -4.2445   -5.9059 C   0  0  0  0  0  0  0  0  0  0  0  0
 23 24  1  0  0  0
 23 29  1  0  0  0
 23 30  1  0  0  0
 24 25  2  0  0  0
 24 28  1  0  0  0
 25 26  1  0  0  0
 26 21  1  0  0  0
 26 27  2  0  0  0
 21  1  1  0  0  0
 21 22  1  0  0  0
  1  2  1  0  0  0
  1  7  2  0  0  0
  2  3  2  0  0  0
  3  4  1  0  0  0
  4  8  1  0  0  0
  4  5  2  0  0  0
  8  9  1  0  0  0
  8 13  1  0  0  0
  9 10  1  0  0  0
 10 11  1  0  0  0
 11 14  1  0  0  0
 11 12  1  0  0  0
 14 15  1  0  0  0
 14 19  1  0  0  0
 15 16  1  0  0  0
 16 17  1  0  0  0
 16 20  1  0  0  0
 17 18  1  0  0  0
 18 19  1  0  0  0
 19 20  1  0  0  0
 12 13  1  0  0  0
  5  6  1  0  0  0
  5  7  1  0  0  0
 27 28  1  0  0  0
 28 31  1  0  0  0
 31 32  1  0  0  0
 31 39  2  0  0  0
 32 33  2  0  0  0
 33 34  1  0  0  0
 34 35  2  0  0  0
 35 36  1  0  0  0
 35 39  1  0  0  0
 36 37  1  0  0  0
 37 38  2  0  0  0
 38 39  1  0  0  0
M  END
> <minimizedAffinity>
-9.75988

$$$$
