CHEMBL1987535


 27 30  0  0  0  0  0  0  0  0999 V2000
  -12.7968   -2.1475  -16.2353 O   0  0  0  0  0  0  0  0  0  0  0  0
  -13.3979   -1.8913  -15.2029 C   0  0  0  0  0  0  0  0  0  0  0  0
  -13.4490   -2.7574  -14.1370 N   0  0  0  0  0  0  0  0  0  0  0  0
  -14.0488   -0.6850  -14.9785 N   0  0  0  0  0  0  0  0  0  0  0  0
  -14.6684   -0.3116  -13.7147 C   0  0  0  0  0  0  0  0  0  0  0  0
  -15.7512    0.6937  -13.9155 C   0  0  0  0  0  0  0  0  0  0  0  0
  -16.0109    1.3228  -15.0752 C   0  0  0  0  0  0  0  0  0  0  0  0
  -15.1356    1.0811  -16.2868 C   0  0  0  0  0  0  0  0  0  0  0  0
  -13.8148    0.4171  -15.9040 C   0  0  0  0  0  0  0  0  0  0  0  0
  -14.3054   -2.7369  -13.6178 H   0  0  0  0  0  0  0  0  0  0  0  0
  -17.0796    2.2567  -15.2417 C   0  0  0  0  0  0  0  0  0  0  0  0
  -16.8936    3.5893  -15.5696 C   0  0  0  0  0  0  0  0  0  0  0  0
  -18.1264    4.1918  -15.6001 N   0  0  0  0  0  0  0  0  0  0  0  0
  -19.0928    3.2865  -15.2874 C   0  0  0  0  0  0  0  0  0  0  0  0
  -20.4043    3.5807  -15.2097 N   0  0  0  0  0  0  0  0  0  0  0  0
  -21.1626    2.5139  -14.8630 C   0  0  0  0  0  0  0  0  0  0  0  0
  -20.6925    1.2319  -14.6124 C   0  0  0  0  0  0  0  0  0  0  0  0
  -19.3267    0.9848  -14.7127 C   0  0  0  0  0  0  0  0  0  0  0  0
  -18.4822    2.0534  -15.0648 C   0  0  0  0  0  0  0  0  0  0  0  0
  -18.3100    5.1634  -15.7974 H   0  0  0  0  0  0  0  0  0  0  0  0
  -12.8525   -4.0719  -14.2223 C   0  0  0  0  0  0  0  0  0  0  0  0
  -13.0715   -4.9014  -12.9578 C   0  0  0  0  0  0  0  0  0  0  0  0
  -14.5309   -4.9964  -12.6167 C   0  0  0  0  0  0  0  0  0  0  0  0
  -15.2053   -4.3998  -11.5672 C   0  0  0  0  0  0  0  0  0  0  0  0
  -16.5945   -4.7187  -11.5684 C   0  0  0  0  0  0  0  0  0  0  0  0
  -16.9342   -5.5458  -12.6149 C   0  0  0  0  0  0  0  0  0  0  0  0
  -15.5854   -5.9347  -13.5896 S   0  0  0  0  0  0  0  0  0  0  0  0
  1  2  2  0  0  0
  2  3  1  0  0  0
  2  4  1  0  0  0
  3 21  1  0  0  0
  3 10  1  0  0  0
 21 22  1  0  0  0
 22 23  1  0  0  0
 23 24  2  0  0  0
 23 27  1  0  0  0
 24 25  1  0  0  0
 25 26  2  0  0  0
 26 27  1  0  0  0
  4  5  1  0  0  0
  4  9  1  0  0  0
  5  6  1  0  0  0
  6  7  2  0  0  0
  7 11  1  0  0  0
  7  8  1  0  0  0
 11 12  2  0  0  0
 11 19  1  0  0  0
 12 13  1  0  0  0
 13 14  1  0  0  0
 13 20  1  0  0  0
 14 15  1  0  0  0
 14 19  2  0  0  0
 15 16  2  0  0  0
 16 17  1  0  0  0
 17 18  2  0  0  0
 18 19  1  0  0  0
  8  9  1  0  0  0
M  END
> <minimizedAffinity>
-7.89935

$$$$
