CHEMBL205464


 34 38  0  0  0  0  0  0  0  0999 V2000
  -15.9529    2.0497  -15.0687 C   0  0  0  0  0  0  0  0  0  0  0  0
  -15.9356    2.3985  -16.3415 N   0  0  0  0  0  0  0  0  0  0  0  0
  -17.1711    2.9330  -16.6313 N   0  0  0  0  0  0  0  0  0  0  0  0
  -17.8583    2.9141  -15.5100 C   0  0  0  0  0  0  0  0  0  0  0  0
  -17.1522    2.3656  -14.4768 O   0  0  0  0  0  0  0  0  0  0  0  0
  -13.0507    3.1352  -14.9913 C   0  0  0  0  0  0  0  0  0  0  0  0
  -13.5555    1.9307  -14.3773 N   0  0  0  0  0  0  0  0  0  0  0  0
  -12.7975    1.0447  -13.6604 C   0  0  0  0  0  0  0  0  0  0  0  0
  -13.5142    0.0309  -13.2298 N   0  0  0  0  0  0  0  0  0  0  0  0
  -14.7870    0.3083  -13.6297 C   0  0  0  0  0  0  0  0  0  0  0  0
  -14.8491    1.4619  -14.3846 C   0  0  0  0  0  0  0  0  0  0  0  0
  -15.8214   -0.4780  -13.2953 N   0  0  0  0  0  0  0  0  0  0  0  0
  -16.6733   -0.0717  -12.9188 H   0  0  0  0  0  0  0  0  0  0  0  0
  -15.9494   -1.8227  -13.8213 C   0  0  0  0  0  0  0  0  0  0  0  0
  -15.8937   -2.8562  -12.7109 C   0  0  0  0  0  0  0  0  0  0  0  0
  -15.5282   -2.5272  -11.3988 C   0  0  0  0  0  0  0  0  0  0  0  0
  -15.5243   -3.5187  -10.4295 C   0  0  0  0  0  0  0  0  0  0  0  0
  -15.8838   -4.7984  -10.6620 N   0  0  0  0  0  0  0  0  0  0  0  0
  -16.2624   -5.0946  -11.9220 C   0  0  0  0  0  0  0  0  0  0  0  0
  -16.2875   -4.1754  -12.9624 C   0  0  0  0  0  0  0  0  0  0  0  0
  -19.1377    3.2639  -15.2999 N   0  0  0  0  0  0  0  0  0  0  0  0
  -19.3144    4.2551  -15.1804 H   0  0  0  0  0  0  0  0  0  0  0  0
  -20.1903    2.4491  -14.8529 C   0  0  0  0  0  0  0  0  0  0  0  0
  -20.1665    1.0548  -14.9212 C   0  0  0  0  0  0  0  0  0  0  0  0
  -21.2601    0.2924  -14.4811 C   0  0  0  0  0  0  0  0  0  0  0  0
  -22.4224    0.8970  -13.9741 C   0  0  0  0  0  0  0  0  0  0  0  0
  -22.4285    2.3007  -13.9096 C   0  0  0  0  0  0  0  0  0  0  0  0
  -21.3367    3.0629  -14.3436 C   0  0  0  0  0  0  0  0  0  0  0  0
  -23.5941    0.1051  -13.5245 C   0  0  0  0  0  0  0  0  0  0  0  0
  -24.2384   -0.8178  -14.3684 C   0  0  0  0  0  0  0  0  0  0  0  0
  -25.3262   -1.5796  -13.9242 C   0  0  0  0  0  0  0  0  0  0  0  0
  -25.7908   -1.4424  -12.6197 C   0  0  0  0  0  0  0  0  0  0  0  0
  -25.1799   -0.5323  -11.7654 C   0  0  0  0  0  0  0  0  0  0  0  0
  -24.1036    0.2373  -12.2178 C   0  0  0  0  0  0  0  0  0  0  0  0
  6  7  1  0  0  0
  7  8  1  0  0  0
  7 11  1  0  0  0
  8  9  2  0  0  0
  9 10  1  0  0  0
 10 12  1  0  0  0
 10 11  2  0  0  0
 12 14  1  0  0  0
 12 13  1  0  0  0
 14 15  1  0  0  0
 15 16  1  0  0  0
 15 20  2  0  0  0
 16 17  2  0  0  0
 17 18  1  0  0  0
 18 19  2  0  0  0
 19 20  1  0  0  0
 11  1  1  0  0  0
  1  2  2  0  0  0
  1  5  1  0  0  0
  2  3  1  0  0  0
  3  4  2  0  0  0
  4 21  1  0  0  0
  4  5  1  0  0  0
 21 23  1  0  0  0
 21 22  1  0  0  0
 23 24  1  0  0  0
 23 28  2  0  0  0
 24 25  2  0  0  0
 25 26  1  0  0  0
 26 29  1  0  0  0
 26 27  2  0  0  0
 29 30  1  0  0  0
 29 34  2  0  0  0
 30 31  2  0  0  0
 31 32  1  0  0  0
 32 33  2  0  0  0
 33 34  1  0  0  0
 27 28  1  0  0  0
M  END
> <minimizedAffinity>
-10.51951

$$$$
