CHEMBL3959327


 43 47  0  0  0  0  0  0  0  0999 V2000
  -16.3868   -1.6040  -13.9926 O   0  0  0  0  0  0  0  0  0  0  0  0
  -15.7638   -0.9521  -13.1660 C   0  0  0  0  0  0  0  0  0  0  0  0
  -15.6466    0.4316  -13.2043 N   0  0  0  0  0  0  0  0  0  0  0  0
  -15.0661   -1.5104  -12.1059 N   0  0  0  0  0  0  0  0  0  0  0  0
  -14.9230    0.8463  -12.6357 H   0  0  0  0  0  0  0  0  0  0  0  0
  -14.6922   -0.8777  -11.4151 H   0  0  0  0  0  0  0  0  0  0  0  0
  -14.9048   -2.8983  -11.8614 C   0  0  0  0  0  0  0  0  0  0  0  0
  -13.6668   -3.4955  -11.5970 C   0  0  0  0  0  0  0  0  0  0  0  0
  -13.5554   -4.8659  -11.3477 C   0  0  0  0  0  0  0  0  0  0  0  0
  -14.6802   -5.6842  -11.4129 C   0  0  0  0  0  0  0  0  0  0  0  0
  -15.9222   -5.0891  -11.6364 C   0  0  0  0  0  0  0  0  0  0  0  0
  -17.0348   -5.8388  -11.6459 F   0  0  0  0  0  0  0  0  0  0  0  0
  -16.0418   -3.7116  -11.8623 C   0  0  0  0  0  0  0  0  0  0  0  0
  -14.6319   -7.0497  -11.2232 O   0  0  0  0  0  0  0  0  0  0  0  0
  -13.9239   -7.8216  -12.1261 C   0  0  0  0  0  0  0  0  0  0  0  0
  -12.8568   -8.6379  -11.7599 C   0  0  0  0  0  0  0  0  0  0  0  0
  -12.2661   -9.3997  -12.7421 C   0  0  0  0  0  0  0  0  0  0  0  0
  -12.6319   -9.3495  -14.0349 N   0  0  0  0  0  0  0  0  0  0  0  0
  -13.6161   -8.5116  -14.4015 C   0  0  0  0  0  0  0  0  0  0  0  0
  -14.2896   -7.7246  -13.4720 C   0  0  0  0  0  0  0  0  0  0  0  0
  -13.9704   -8.4193  -15.7576 N   0  0  0  0  0  0  0  0  0  0  0  0
  -13.2812   -7.6613  -16.6832 C   0  0  0  0  0  0  0  0  0  0  0  0
  -12.2750   -6.9908  -16.5068 O   0  0  0  0  0  0  0  0  0  0  0  0
  -14.7895   -8.9219  -16.0606 H   0  0  0  0  0  0  0  0  0  0  0  0
  -13.8986   -7.6797  -18.0485 C   0  0  0  0  0  0  0  0  0  0  0  0
  -13.3827   -8.6425  -19.0990 C   0  0  0  0  0  0  0  0  0  0  0  0
  -13.0888   -7.1769  -19.2236 C   0  0  0  0  0  0  0  0  0  0  0  0
  -16.2327    1.2617  -14.1952 C   0  0  0  0  0  0  0  0  0  0  0  0
  -15.5054    1.7932  -15.2695 C   0  0  0  0  0  0  0  0  0  0  0  0
  -16.0565    2.6996  -16.1923 C   0  0  0  0  0  0  0  0  0  0  0  0
  -17.4072    3.0335  -16.0200 C   0  0  0  0  0  0  0  0  0  0  0  0
  -18.1904    2.4512  -15.0074 C   0  0  0  0  0  0  0  0  0  0  0  0
  -17.5904    1.5658  -14.0951 C   0  0  0  0  0  0  0  0  0  0  0  0
  -15.2454    3.2496  -17.3072 C   0  0  0  0  0  0  0  0  0  0  0  0
  -15.4735    4.5385  -17.8096 C   0  0  0  0  0  0  0  0  0  0  0  0
  -14.7140    5.0071  -18.8717 C   0  0  0  0  0  0  0  0  0  0  0  0
  -13.7503    4.2903  -19.4801 N   0  0  0  0  0  0  0  0  0  0  0  0
  -13.5339    3.0508  -18.9983 C   0  0  0  0  0  0  0  0  0  0  0  0
  -14.2336    2.5026  -17.9317 C   0  0  0  0  0  0  0  0  0  0  0  0
  -19.6623    2.7663  -14.9090 C   0  0  0  0  0  0  0  0  0  0  0  0
  -19.9672    3.6498  -13.9177 F   0  0  0  0  0  0  0  0  0  0  0  0
  -20.1484    3.3153  -16.0568 F   0  0  0  0  0  0  0  0  0  0  0  0
  -20.4196    1.6610  -14.6726 F   0  0  0  0  0  0  0  0  0  0  0  0
  1  2  2  0  0  0
  2  3  1  0  0  0
  2  4  1  0  0  0
  3 28  1  0  0  0
  3  5  1  0  0  0
 28 29  1  0  0  0
 28 33  2  0  0  0
 29 30  2  0  0  0
 30 34  1  0  0  0
 30 31  1  0  0  0
 34 35  1  0  0  0
 34 39  2  0  0  0
 35 36  2  0  0  0
 36 37  1  0  0  0
 37 38  2  0  0  0
 38 39  1  0  0  0
 31 32  2  0  0  0
 32 40  1  0  0  0
 32 33  1  0  0  0
 40 41  1  0  0  0
 40 42  1  0  0  0
 40 43  1  0  0  0
  4  7  1  0  0  0
  4  6  1  0  0  0
  7  8  1  0  0  0
  7 13  2  0  0  0
  8  9  2  0  0  0
  9 10  1  0  0  0
 10 14  1  0  0  0
 10 11  2  0  0  0
 14 15  1  0  0  0
 15 16  1  0  0  0
 15 20  2  0  0  0
 16 17  2  0  0  0
 17 18  1  0  0  0
 18 19  2  0  0  0
 19 21  1  0  0  0
 19 20  1  0  0  0
 21 22  1  0  0  0
 21 24  1  0  0  0
 22 23  2  0  0  0
 22 25  1  0  0  0
 25 26  1  0  0  0
 25 27  1  0  0  0
 26 27  1  0  0  0
 11 12  1  0  0  0
 11 13  1  0  0  0
M  END
> <minimizedAffinity>
-9.89508

$$$$
