CHEMBL3954731


 30 33  0  0  0  0  0  0  0  0999 V2000
  -20.1592    2.6181  -15.3984 C   0  0  0  0  0  0  0  0  0  0  0  0
  -18.8530    2.9926  -15.7185 C   0  0  0  0  0  0  0  0  0  0  0  0
  -17.7667    2.1477  -15.4912 C   0  0  0  0  0  0  0  0  0  0  0  0
  -16.4365    2.5924  -15.5180 C   0  0  0  0  0  0  0  0  0  0  0  0
  -15.4189    1.7713  -15.2675 N   0  0  0  0  0  0  0  0  0  0  0  0
  -15.7399    0.4898  -15.0163 C   0  0  0  0  0  0  0  0  0  0  0  0
  -16.9725   -0.0266  -14.9335 N   0  0  0  0  0  0  0  0  0  0  0  0
  -17.9989    0.8172  -15.1434 C   0  0  0  0  0  0  0  0  0  0  0  0
  -19.3174    0.3914  -14.9768 C   0  0  0  0  0  0  0  0  0  0  0  0
  -20.4093    1.2771  -15.0689 C   0  0  0  0  0  0  0  0  0  0  0  0
  -21.8680    3.6908  -14.1155 C   0  0  0  0  0  0  0  0  0  0  0  0
  -21.1572    3.5542  -15.3458 O   0  0  0  0  0  0  0  0  0  0  0  0
  -16.1733    3.9763  -15.7117 N   0  0  0  0  0  0  0  0  0  0  0  0
  -16.9938    4.5551  -15.5915 H   0  0  0  0  0  0  0  0  0  0  0  0
  -15.0903    4.6143  -16.3417 C   0  0  0  0  0  0  0  0  0  0  0  0
  -15.1377    5.0305  -17.6768 C   0  0  0  0  0  0  0  0  0  0  0  0
  -13.9971    5.5296  -18.3172 C   0  0  0  0  0  0  0  0  0  0  0  0
  -12.7923    5.6395  -17.6228 C   0  0  0  0  0  0  0  0  0  0  0  0
  -11.4011    6.1760  -18.4940 Cl  0  0  0  0  0  0  0  0  0  0  0  0
  -12.7431    5.2854  -16.2727 C   0  0  0  0  0  0  0  0  0  0  0  0
  -11.2971    5.4131  -15.3332 Cl  0  0  0  0  0  0  0  0  0  0  0  0
  -13.8858    4.7773  -15.6407 C   0  0  0  0  0  0  0  0  0  0  0  0
  -21.6248    0.6910  -14.8009 O   0  0  0  0  0  0  0  0  0  0  0  0
  -21.8516    0.2874  -13.4501 C   0  0  0  0  0  0  0  0  0  0  0  0
  -22.8984   -0.8275  -13.3463 C   0  0  0  0  0  0  0  0  0  0  0  0
  -24.0524   -0.5915  -14.3319 C   0  0  0  0  0  0  0  0  0  0  0  0
  -25.1961   -1.5772  -14.1140 C   0  0  0  0  0  0  0  0  0  0  0  0
  -25.6895   -1.5369  -12.6722 C   0  0  0  0  0  0  0  0  0  0  0  0
  -24.5591   -1.8562  -11.7025 C   0  0  0  0  0  0  0  0  0  0  0  0
  -23.3900   -0.8977  -11.8876 C   0  0  0  0  0  0  0  0  0  0  0  0
 11 12  1  0  0  0
 12  1  1  0  0  0
  1  2  1  0  0  0
  1 10  2  0  0  0
  2  3  2  0  0  0
  3  4  1  0  0  0
  3  8  1  0  0  0
  4 13  1  0  0  0
  4  5  2  0  0  0
 13 15  1  0  0  0
 13 14  1  0  0  0
 15 16  1  0  0  0
 15 22  2  0  0  0
 16 17  2  0  0  0
 17 18  1  0  0  0
 18 19  1  0  0  0
 18 20  2  0  0  0
 20 21  1  0  0  0
 20 22  1  0  0  0
  5  6  1  0  0  0
  6  7  2  0  0  0
  7  8  1  0  0  0
  8  9  2  0  0  0
  9 10  1  0  0  0
 10 23  1  0  0  0
 23 24  1  0  0  0
 24 25  1  0  0  0
 25 26  1  0  0  0
 25 30  1  0  0  0
 26 27  1  0  0  0
 27 28  1  0  0  0
 28 29  1  0  0  0
 29 30  1  0  0  0
M  END
> <minimizedAffinity>
-8.48195

$$$$
