CHEMBL3612232


 29 32  0  0  0  0  0  0  0  0999 V2000
  -28.5291   -2.4497   -6.5081 C   0  0  0  0  0  0  0  0  0  0  0  0
  -27.7356   -2.3184   -5.3611 C   0  0  0  0  0  0  0  0  0  0  0  0
  -27.8378   -3.2363   -4.3171 C   0  0  0  0  0  0  0  0  0  0  0  0
  -28.7398   -4.2937   -4.4129 C   0  0  0  0  0  0  0  0  0  0  0  0
  -29.5625   -4.4174   -5.5386 C   0  0  0  0  0  0  0  0  0  0  0  0
  -29.4793   -3.4716   -6.5721 C   0  0  0  0  0  0  0  0  0  0  0  0
  -27.5473   -1.1496   -9.7581 N   0  0  0  0  0  0  0  0  0  0  0  0
  -27.6308   -2.0756   -8.7339 C   0  0  0  0  0  0  0  0  0  0  0  0
  -27.1763   -3.2117   -8.7788 O   0  0  0  0  0  0  0  0  0  0  0  0
  -28.3392   -1.6009   -7.6329 N   0  0  0  0  0  0  0  0  0  0  0  0
  -27.7541   -0.1894   -9.5207 H   0  0  0  0  0  0  0  0  0  0  0  0
  -29.0987   -0.9751   -7.8568 H   0  0  0  0  0  0  0  0  0  0  0  0
  -23.5649   -1.5570  -12.6875 C   0  0  0  0  0  0  0  0  0  0  0  0
  -25.0515   -1.5962  -12.4947 C   0  0  0  0  0  0  0  0  0  0  0  0
  -25.8852   -1.8659  -13.5858 C   0  0  0  0  0  0  0  0  0  0  0  0
  -27.2640   -1.8936  -13.4227 C   0  0  0  0  0  0  0  0  0  0  0  0
  -27.8210   -1.6608  -12.1658 C   0  0  0  0  0  0  0  0  0  0  0  0
  -27.0177   -1.3992  -11.0510 C   0  0  0  0  0  0  0  0  0  0  0  0
  -25.6265   -1.3642  -11.2281 C   0  0  0  0  0  0  0  0  0  0  0  0
  -30.7361   -5.7497   -5.6346 S   0  0  0  0  0  0  0  0  0  0  0  0
  -30.0927   -6.8858   -6.8471 C   0  0  0  0  0  0  0  0  0  0  0  0
  -28.8192   -6.8037   -7.4190 C   0  0  0  0  0  0  0  0  0  0  0  0
  -28.4331   -7.7387   -8.3632 C   0  0  0  0  0  0  0  0  0  0  0  0
  -29.1876   -8.7604   -8.7994 N   0  0  0  0  0  0  0  0  0  0  0  0
  -30.4258   -8.8551   -8.2473 C   0  0  0  0  0  0  0  0  0  0  0  0
  -31.3709   -9.8696   -8.5786 C   0  0  0  0  0  0  0  0  0  0  0  0
  -32.5462   -9.7423   -7.8776 C   0  0  0  0  0  0  0  0  0  0  0  0
  -32.5159   -8.4020   -6.8244 S   0  0  0  0  0  0  0  0  0  0  0  0
  -30.9050   -7.9582   -7.2874 C   0  0  0  0  0  0  0  0  0  0  0  0
 13 14  1  0  0  0
 14 15  1  0  0  0
 14 19  2  0  0  0
 15 16  2  0  0  0
 16 17  1  0  0  0
 17 18  2  0  0  0
 18  7  1  0  0  0
 18 19  1  0  0  0
  7  8  1  0  0  0
  7 11  1  0  0  0
  8  9  2  0  0  0
  8 10  1  0  0  0
 10  1  1  0  0  0
 10 12  1  0  0  0
  1  2  1  0  0  0
  1  6  2  0  0  0
  2  3  2  0  0  0
  3  4  1  0  0  0
  4  5  2  0  0  0
  5 20  1  0  0  0
  5  6  1  0  0  0
 20 21  1  0  0  0
 21 22  1  0  0  0
 21 29  2  0  0  0
 22 23  2  0  0  0
 23 24  1  0  0  0
 24 25  2  0  0  0
 25 26  1  0  0  0
 25 29  1  0  0  0
 26 27  2  0  0  0
 27 28  1  0  0  0
 28 29  1  0  0  0
M  END
> <minimizedAffinity>
-8.94513

$$$$
