CHEMBL3959038


 39 42  0  0  0  0  0  0  0  0999 V2000
  -28.6284   -5.2031   -5.7200 C   0  0  0  0  0  0  0  0  0  0  0  0
  -28.3043   -3.9037   -5.2943 C   0  0  0  0  0  0  0  0  0  0  0  0
  -28.0978   -2.8646   -6.1896 C   0  0  0  0  0  0  0  0  0  0  0  0
  -27.8057   -1.6372   -5.7439 N   0  0  0  0  0  0  0  0  0  0  0  0
  -27.6277   -0.6900   -6.6727 C   0  0  0  0  0  0  0  0  0  0  0  0
  -27.7220   -0.8521   -7.9983 N   0  0  0  0  0  0  0  0  0  0  0  0
  -28.0250   -2.0834   -8.4359 C   0  0  0  0  0  0  0  0  0  0  0  0
  -28.2049   -3.1532   -7.5504 C   0  0  0  0  0  0  0  0  0  0  0  0
  -28.5103   -4.4581   -7.9844 C   0  0  0  0  0  0  0  0  0  0  0  0
  -28.7846   -5.4740   -7.0841 C   0  0  0  0  0  0  0  0  0  0  0  0
  -28.2078   -2.3418   -9.8255 N   0  0  0  0  0  0  0  0  0  0  0  0
  -29.1676   -2.1134  -10.0660 H   0  0  0  0  0  0  0  0  0  0  0  0
  -27.3466   -2.0450  -10.8957 C   0  0  0  0  0  0  0  0  0  0  0  0
  -27.8094   -1.7079  -12.1639 C   0  0  0  0  0  0  0  0  0  0  0  0
  -26.9166   -1.4446  -13.2031 C   0  0  0  0  0  0  0  0  0  0  0  0
  -25.5450   -1.4571  -12.9666 C   0  0  0  0  0  0  0  0  0  0  0  0
  -24.4951   -1.1768  -14.3070 Cl  0  0  0  0  0  0  0  0  0  0  0  0
  -25.0640   -1.6960  -11.6698 C   0  0  0  0  0  0  0  0  0  0  0  0
  -23.3802   -1.6698  -11.2871 Cl  0  0  0  0  0  0  0  0  0  0  0  0
  -25.9607   -1.9688  -10.6426 C   0  0  0  0  0  0  0  0  0  0  0  0
  -29.2154   -6.7060   -7.5060 O   0  0  0  0  0  0  0  0  0  0  0  0
  -30.6258   -6.9421   -7.4176 C   0  0  0  0  0  0  0  0  0  0  0  0
  -28.7094   -6.0993   -4.6914 O   0  0  0  0  0  0  0  0  0  0  0  0
  -27.9424   -7.3064   -4.7783 C   0  0  0  0  0  0  0  0  0  0  0  0
  -25.4950   -9.9402   -4.8236 C   0  0  0  0  0  0  0  0  0  0  0  0
  -24.8699   -9.3834   -3.9124 O   0  0  0  0  0  0  0  0  0  0  0  0
  -26.8414  -10.1989   -4.6525 N   0  0  0  0  0  0  0  0  0  0  0  0
  -27.7881  -10.9041   -5.5156 C   0  0  0  0  0  0  0  0  0  0  0  0
  -28.8490   -9.9559   -6.0741 C   0  0  0  0  0  0  0  0  0  0  0  0
  -29.5035   -9.2457   -5.0288 O   0  0  0  0  0  0  0  0  0  0  0  0
  -28.5890   -8.5661   -4.1459 C   0  0  0  0  0  0  0  0  0  0  0  0
  -27.5244   -9.5080   -3.5627 C   0  0  0  0  0  0  0  0  0  0  0  0
  -24.7842  -10.2135   -6.1671 C   0  0  0  0  0  0  0  0  0  0  0  0
  -23.3001   -9.7593   -6.0151 C   0  0  0  0  0  0  0  0  0  0  0  0
  -21.2622  -11.0023   -6.8175 C   0  0  0  0  0  0  0  0  0  0  0  0
  -22.2927  -10.8667   -5.7029 C   0  0  0  0  0  0  0  0  0  0  0  0
  -24.8966  -11.6428   -6.7176 C   0  0  0  0  0  0  0  0  0  0  0  0
  -24.7985  -11.7820   -8.2331 C   0  0  0  0  0  0  0  0  0  0  0  0
  -26.0764  -11.2625   -8.8807 C   0  0  0  0  0  0  0  0  0  0  0  0
 35 36  1  0  0  0
 36 34  1  0  0  0
 34 33  1  0  0  0
 33 37  1  0  0  0
 33 25  1  0  0  0
 37 38  1  0  0  0
 38 39  1  0  0  0
 25 26  2  0  0  0
 25 27  1  0  0  0
 27 28  1  0  0  0
 27 32  1  0  0  0
 28 29  1  0  0  0
 29 30  1  0  0  0
 30 31  1  0  0  0
 31 24  1  0  0  0
 31 32  1  0  0  0
 24 23  1  0  0  0
 23  1  1  0  0  0
  1  2  1  0  0  0
  1 10  2  0  0  0
  2  3  2  0  0  0
  3  4  1  0  0  0
  3  8  1  0  0  0
  4  5  2  0  0  0
  5  6  1  0  0  0
  6  7  2  0  0  0
  7 11  1  0  0  0
  7  8  1  0  0  0
 11 13  1  0  0  0
 11 12  1  0  0  0
 13 14  1  0  0  0
 13 20  2  0  0  0
 14 15  2  0  0  0
 15 16  1  0  0  0
 16 17  1  0  0  0
 16 18  2  0  0  0
 18 19  1  0  0  0
 18 20  1  0  0  0
  8  9  2  0  0  0
  9 10  1  0  0  0
 10 21  1  0  0  0
 21 22  1  0  0  0
M  END
> <minimizedAffinity>
-8.71366

$$$$
