CHEMBL250482


 31 34  0  0  0  0  0  0  0  0999 V2000
  -17.5355    1.4055  -13.7068 O   0  0  0  0  0  0  0  0  0  0  0  0
  -17.6970    1.9268  -14.8183 C   0  0  0  0  0  0  0  0  0  0  0  0
  -18.8978    2.1363  -15.4551 N   0  0  0  0  0  0  0  0  0  0  0  0
  -18.8599    2.6580  -16.3360 H   0  0  0  0  0  0  0  0  0  0  0  0
  -20.1644    1.7196  -15.0161 C   0  0  0  0  0  0  0  0  0  0  0  0
  -21.1014    2.6026  -14.4789 C   0  0  0  0  0  0  0  0  0  0  0  0
  -22.3228    2.1395  -14.0003 C   0  0  0  0  0  0  0  0  0  0  0  0
  -22.6179    0.7735  -14.0153 C   0  0  0  0  0  0  0  0  0  0  0  0
  -21.7140   -0.0991  -14.6383 C   0  0  0  0  0  0  0  0  0  0  0  0
  -20.4949    0.3712  -15.1328 C   0  0  0  0  0  0  0  0  0  0  0  0
  -23.8175    0.2239  -13.2706 C   0  0  0  0  0  0  0  0  0  0  0  0
  -23.4821   -0.3056  -11.8684 C   0  0  0  0  0  0  0  0  0  0  0  0
  -24.7255   -0.8805  -11.1899 C   0  0  0  0  0  0  0  0  0  0  0  0
  -25.3815   -1.9640  -12.0416 C   0  0  0  0  0  0  0  0  0  0  0  0
  -25.7251   -1.4486  -13.4347 C   0  0  0  0  0  0  0  0  0  0  0  0
  -24.4994   -0.8632  -14.1271 C   0  0  0  0  0  0  0  0  0  0  0  0
  -16.4960    2.4701  -15.4974 C   0  0  0  0  0  0  0  0  0  0  0  0
  -16.5997    3.8273  -15.8930 C   0  0  0  0  0  0  0  0  0  0  0  0
  -15.5491    4.4097  -16.5840 C   0  0  0  0  0  0  0  0  0  0  0  0
  -14.4463    3.6307  -16.8460 C   0  0  0  0  0  0  0  0  0  0  0  0
  -14.3203    2.3258  -16.4898 N   0  0  0  0  0  0  0  0  0  0  0  0
  -15.3498    1.7457  -15.8306 C   0  0  0  0  0  0  0  0  0  0  0  0
  -15.2086    0.3759  -15.4911 N   0  0  0  0  0  0  0  0  0  0  0  0
  -16.1488   -0.0237  -15.4347 H   0  0  0  0  0  0  0  0  0  0  0  0
  -14.4099    0.1417  -14.2740 C   0  0  0  0  0  0  0  0  0  0  0  0
  -14.7392   -1.1822  -13.6161 C   0  0  0  0  0  0  0  0  0  0  0  0
  -14.0721   -2.3487  -14.0346 C   0  0  0  0  0  0  0  0  0  0  0  0
  -14.2449   -3.5137  -13.3046 C   0  0  0  0  0  0  0  0  0  0  0  0
  -15.0359   -3.6050  -12.2191 N   0  0  0  0  0  0  0  0  0  0  0  0
  -15.6803   -2.4770  -11.8428 C   0  0  0  0  0  0  0  0  0  0  0  0
  -15.5706   -1.2648  -12.5024 C   0  0  0  0  0  0  0  0  0  0  0  0
  1  2  2  0  0  0
  2  3  1  0  0  0
  2 17  1  0  0  0
  3  5  1  0  0  0
  3  4  1  0  0  0
  5  6  1  0  0  0
  5 10  2  0  0  0
  6  7  2  0  0  0
  7  8  1  0  0  0
  8 11  1  0  0  0
  8  9  2  0  0  0
 11 12  1  0  0  0
 11 16  1  0  0  0
 12 13  1  0  0  0
 13 14  1  0  0  0
 14 15  1  0  0  0
 15 16  1  0  0  0
  9 10  1  0  0  0
 17 18  1  0  0  0
 17 22  2  0  0  0
 18 19  2  0  0  0
 19 20  1  0  0  0
 20 21  2  0  0  0
 21 22  1  0  0  0
 22 23  1  0  0  0
 23 25  1  0  0  0
 23 24  1  0  0  0
 25 26  1  0  0  0
 26 27  1  0  0  0
 26 31  2  0  0  0
 27 28  2  0  0  0
 28 29  1  0  0  0
 29 30  2  0  0  0
 30 31  1  0  0  0
M  END
> <minimizedAffinity>
-9.25306

$$$$
