CHEMBL3648076


 32 34  0  0  0  0  0  0  0  0999 V2000
  -28.2140  -10.1660   -7.2369 C   0  0  0  0  0  0  0  0  0  0  0  0
  -28.9218   -9.0559   -6.9009 N   0  0  0  0  0  0  0  0  0  0  0  0
  -29.7323   -8.5269   -7.8379 C   0  0  0  0  0  0  0  0  0  0  0  0
  -29.7638   -8.9519   -9.1067 N   0  0  0  0  0  0  0  0  0  0  0  0
  -29.0856  -10.0654   -9.4140 C   0  0  0  0  0  0  0  0  0  0  0  0
  -28.3383  -10.7468   -8.4930 C   0  0  0  0  0  0  0  0  0  0  0  0
  -27.5474  -12.3841   -9.0078 Br  0  0  0  0  0  0  0  0  0  0  0  0
  -27.3492  -10.7494   -6.2901 N   0  0  0  0  0  0  0  0  0  0  0  0
  -27.8888  -11.1736   -5.5328 H   0  0  0  0  0  0  0  0  0  0  0  0
  -25.0360  -11.0527   -5.6507 C   0  0  0  0  0  0  0  0  0  0  0  0
  -26.1646  -10.0128   -5.8139 C   0  0  0  0  0  0  0  0  0  0  0  0
  -26.4461   -9.2694   -4.4578 C   0  0  0  0  0  0  0  0  0  0  0  0
  -27.4466  -10.0505   -3.5855 C   0  0  0  0  0  0  0  0  0  0  0  0
  -25.1669   -9.0690   -3.6372 C   0  0  0  0  0  0  0  0  0  0  0  0
  -26.9829   -7.9626   -4.7020 O   0  0  0  0  0  0  0  0  0  0  0  0
  -27.8935   -8.0678   -5.0550 H   0  0  0  0  0  0  0  0  0  0  0  0
  -30.6061   -7.4958   -7.4716 N   0  0  0  0  0  0  0  0  0  0  0  0
  -31.5591   -7.6842   -7.7376 H   0  0  0  0  0  0  0  0  0  0  0  0
  -30.3130   -6.3134   -6.7671 C   0  0  0  0  0  0  0  0  0  0  0  0
  -29.6679   -5.2189   -7.3724 C   0  0  0  0  0  0  0  0  0  0  0  0
  -29.1624   -4.1431   -6.6368 C   0  0  0  0  0  0  0  0  0  0  0  0
  -29.3254   -4.1207   -5.2575 C   0  0  0  0  0  0  0  0  0  0  0  0
  -30.0123   -5.1715   -4.6310 C   0  0  0  0  0  0  0  0  0  0  0  0
  -30.5024   -6.2544   -5.3823 C   0  0  0  0  0  0  0  0  0  0  0  0
  -28.5942   -2.7922   -4.2865 S   0  0  0  0  0  0  0  0  0  0  0  0
  -29.0604   -3.0435   -2.8332 N   0  0  0  0  0  0  0  0  0  0  0  0
  -27.2033   -2.7495   -4.6919 O   0  0  0  0  0  0  0  0  0  0  0  0
  -28.5797   -3.8552   -2.4433 H   0  0  0  0  0  0  0  0  0  0  0  0
  -29.3958   -1.2767   -4.8541 C   0  0  0  0  0  0  0  0  0  0  0  0
  -28.3318   -0.3346   -5.3664 C   0  0  0  0  0  0  0  0  0  0  0  0
  -28.2249    1.0499   -4.7555 C   0  0  0  0  0  0  0  0  0  0  0  0
  -28.6801    0.8970   -6.1760 C   0  0  0  0  0  0  0  0  0  0  0  0
 10 11  1  0  0  0
 11  8  1  0  0  0
 11 12  1  0  0  0
  8  1  1  0  0  0
  8  9  1  0  0  0
  1  2  1  0  0  0
  1  6  2  0  0  0
  2  3  2  0  0  0
  3 17  1  0  0  0
  3  4  1  0  0  0
 17 19  1  0  0  0
 17 18  1  0  0  0
 19 20  1  0  0  0
 19 24  2  0  0  0
 20 21  2  0  0  0
 21 22  1  0  0  0
 22 25  1  0  0  0
 22 23  2  0  0  0
 25 26  2  0  0  0
 25 27  2  0  0  0
 25 29  1  0  0  0
 26 28  1  0  0  0
 29 30  1  0  0  0
 30 31  1  0  0  0
 30 32  1  0  0  0
 31 32  1  0  0  0
 23 24  1  0  0  0
  4  5  2  0  0  0
  5  6  1  0  0  0
  6  7  1  0  0  0
 12 13  1  0  0  0
 12 14  1  0  0  0
 12 15  1  0  0  0
 15 16  1  0  0  0
M  END
> <minimizedAffinity>
-7.64617

$$$$
