CHEMBL3955447


 33 36  0  0  0  0  0  0  0  0999 V2000
  -28.4804   -8.5621   -7.6523 C   0  0  0  0  0  0  0  0  0  0  0  0
  -29.0004   -7.3682   -7.1568 C   0  0  0  0  0  0  0  0  0  0  0  0
  -29.2189   -7.1791   -5.7778 C   0  0  0  0  0  0  0  0  0  0  0  0
  -29.8459   -6.0516   -5.2103 C   0  0  0  0  0  0  0  0  0  0  0  0
  -30.0970   -5.9777   -3.8923 N   0  0  0  0  0  0  0  0  0  0  0  0
  -29.7169   -7.0086   -3.1425 C   0  0  0  0  0  0  0  0  0  0  0  0
  -29.0762   -8.1067   -3.5737 N   0  0  0  0  0  0  0  0  0  0  0  0
  -28.8334   -8.1868   -4.8863 C   0  0  0  0  0  0  0  0  0  0  0  0
  -28.1718   -9.3059   -5.3904 C   0  0  0  0  0  0  0  0  0  0  0  0
  -27.9532   -9.5035   -6.7645 C   0  0  0  0  0  0  0  0  0  0  0  0
  -29.4920   -9.5582   -9.5252 C   0  0  0  0  0  0  0  0  0  0  0  0
  -28.5188   -8.6312   -9.0168 O   0  0  0  0  0  0  0  0  0  0  0  0
  -30.2196   -4.9714   -6.0614 N   0  0  0  0  0  0  0  0  0  0  0  0
  -31.2237   -4.9904   -6.2047 H   0  0  0  0  0  0  0  0  0  0  0  0
  -29.7282   -3.6470   -6.0730 C   0  0  0  0  0  0  0  0  0  0  0  0
  -29.9266   -2.7539   -5.0158 C   0  0  0  0  0  0  0  0  0  0  0  0
  -29.4240   -1.4499   -5.0629 C   0  0  0  0  0  0  0  0  0  0  0  0
  -28.6699   -1.0286   -6.1556 C   0  0  0  0  0  0  0  0  0  0  0  0
  -28.1048    0.6025   -6.1648 Cl  0  0  0  0  0  0  0  0  0  0  0  0
  -28.4033   -1.9290   -7.1867 C   0  0  0  0  0  0  0  0  0  0  0  0
  -27.4355   -1.4996   -8.5582 Cl  0  0  0  0  0  0  0  0  0  0  0  0
  -28.9149   -3.2312   -7.1384 C   0  0  0  0  0  0  0  0  0  0  0  0
  -27.2053  -10.6210   -7.0381 O   0  0  0  0  0  0  0  0  0  0  0  0
  -26.7652  -11.4593   -5.9786 C   0  0  0  0  0  0  0  0  0  0  0  0
  -25.2624  -11.6012   -5.8513 C   0  0  0  0  0  0  0  0  0  0  0  0
  -24.7117  -10.4858   -4.9404 C   0  0  0  0  0  0  0  0  0  0  0  0
  -23.2378  -10.5195   -4.8603 N   0  0  0  0  0  0  0  0  0  0  0  0
  -22.7357  -10.3653   -6.2466 C   0  0  0  0  0  0  0  0  0  0  0  0
  -23.3242  -11.3784   -7.2484 C   0  0  0  0  0  0  0  0  0  0  0  0
  -24.7493  -11.4495   -7.1945 O   0  0  0  0  0  0  0  0  0  0  0  0
  -22.7414  -11.7683   -4.2428 C   0  0  0  0  0  0  0  0  0  0  0  0
  -21.4939  -11.6074   -3.3659 C   0  0  0  0  0  0  0  0  0  0  0  0
  -21.8152  -10.8323   -2.2930 F   0  0  0  0  0  0  0  0  0  0  0  0
 11 12  1  0  0  0
 12  1  1  0  0  0
  1  2  1  0  0  0
  1 10  2  0  0  0
  2  3  2  0  0  0
  3  4  1  0  0  0
  3  8  1  0  0  0
  4 13  1  0  0  0
  4  5  2  0  0  0
 13 15  1  0  0  0
 13 14  1  0  0  0
 15 16  1  0  0  0
 15 22  2  0  0  0
 16 17  2  0  0  0
 17 18  1  0  0  0
 18 19  1  0  0  0
 18 20  2  0  0  0
 20 21  1  0  0  0
 20 22  1  0  0  0
  5  6  1  0  0  0
  6  7  2  0  0  0
  7  8  1  0  0  0
  8  9  2  0  0  0
  9 10  1  0  0  0
 10 23  1  0  0  0
 23 24  1  0  0  0
 24 25  1  0  0  0
 25 26  1  0  0  0
 25 30  1  0  0  0
 26 27  1  0  0  0
 27 31  1  0  0  0
 27 28  1  0  0  0
 31 32  1  0  0  0
 32 33  1  0  0  0
 28 29  1  0  0  0
 29 30  1  0  0  0
M  END
> <minimizedAffinity>
-7.80841

$$$$
