CHEMBL2407749


 30 34  0  0  0  0  0  0  0  0999 V2000
  -14.5345    0.0817  -14.1297 C   0  0  0  0  0  0  0  0  0  0  0  0
  -13.9507   -0.9792  -14.8270 C   0  0  0  0  0  0  0  0  0  0  0  0
  -14.0873   -2.2997  -14.3786 C   0  0  0  0  0  0  0  0  0  0  0  0
  -14.8017   -2.5660  -13.1934 C   0  0  0  0  0  0  0  0  0  0  0  0
  -15.1909   -3.7194  -12.4269 C   0  0  0  0  0  0  0  0  0  0  0  0
  -15.8866   -3.3585  -11.3394 N   0  0  0  0  0  0  0  0  0  0  0  0
  -15.9465   -2.0220  -11.4040 N   0  0  0  0  0  0  0  0  0  0  0  0
  -15.3353   -1.4770  -12.4974 C   0  0  0  0  0  0  0  0  0  0  0  0
  -15.2215   -0.1481  -12.9322 C   0  0  0  0  0  0  0  0  0  0  0  0
  -16.4380   -1.5350  -10.6655 H   0  0  0  0  0  0  0  0  0  0  0  0
  -14.2799    3.9642  -16.1471 O   0  0  0  0  0  0  0  0  0  0  0  0
  -15.3302    3.4175  -15.8725 C   0  0  0  0  0  0  0  0  0  0  0  0
  -16.6080    3.8265  -16.2170 N   0  0  0  0  0  0  0  0  0  0  0  0
  -17.5722    2.9483  -15.7264 C   0  0  0  0  0  0  0  0  0  0  0  0
  -18.9409    3.0626  -15.8765 C   0  0  0  0  0  0  0  0  0  0  0  0
  -19.7383    2.0821  -15.2828 C   0  0  0  0  0  0  0  0  0  0  0  0
  -19.1562    1.0342  -14.5494 C   0  0  0  0  0  0  0  0  0  0  0  0
  -17.7655    0.9431  -14.4064 C   0  0  0  0  0  0  0  0  0  0  0  0
  -16.9739    1.8980  -15.0205 C   0  0  0  0  0  0  0  0  0  0  0  0
  -15.5258    2.1331  -15.1080 C   0  0  0  0  0  0  0  0  0  0  0  0
  -14.4616    1.4185  -14.7171 C   0  0  0  0  0  0  0  0  0  0  0  0
  -16.7878    4.6633  -16.7492 H   0  0  0  0  0  0  0  0  0  0  0  0
  -14.9032   -5.0908  -12.7451 C   0  0  0  0  0  0  0  0  0  0  0  0
  -13.7498   -5.7364  -12.4275 C   0  0  0  0  0  0  0  0  0  0  0  0
  -13.4163   -7.1272  -12.7507 C   0  0  0  0  0  0  0  0  0  0  0  0
  -13.5554   -7.6604  -14.0314 C   0  0  0  0  0  0  0  0  0  0  0  0
  -13.1226   -8.9547  -14.2499 C   0  0  0  0  0  0  0  0  0  0  0  0
  -12.5715   -9.7412  -13.2995 N   0  0  0  0  0  0  0  0  0  0  0  0
  -12.4369   -9.2012  -12.0700 C   0  0  0  0  0  0  0  0  0  0  0  0
  -12.8356   -7.9160  -11.7515 C   0  0  0  0  0  0  0  0  0  0  0  0
 11 12  2  0  0  0
 12 13  1  0  0  0
 12 20  1  0  0  0
 13 14  1  0  0  0
 13 22  1  0  0  0
 14 15  1  0  0  0
 14 19  2  0  0  0
 15 16  2  0  0  0
 16 17  1  0  0  0
 17 18  2  0  0  0
 18 19  1  0  0  0
 19 20  1  0  0  0
 20 21  2  0  0  0
 21  1  1  0  0  0
  1  2  1  0  0  0
  1  9  2  0  0  0
  2  3  2  0  0  0
  3  4  1  0  0  0
  4  5  1  0  0  0
  4  8  2  0  0  0
  5 23  1  0  0  0
  5  6  2  0  0  0
 23 24  2  0  0  0
 24 25  1  0  0  0
 25 26  1  0  0  0
 25 30  2  0  0  0
 26 27  2  0  0  0
 27 28  1  0  0  0
 28 29  2  0  0  0
 29 30  1  0  0  0
  6  7  1  0  0  0
  7  8  1  0  0  0
  7 10  1  0  0  0
  8  9  1  0  0  0
M  END
> <minimizedAffinity>
-8.06445

$$$$
