CHEMBL3657550


 37 42  0  0  0  0  0  0  0  0999 V2000
  -28.8481   -8.6368   -6.6141 C   0  0  0  0  0  0  0  0  0  0  0  0
  -30.2161   -8.7920   -6.5285 C   0  0  0  0  0  0  0  0  0  0  0  0
  -30.9510   -7.7362   -7.0020 C   0  0  0  0  0  0  0  0  0  0  0  0
  -30.4028   -6.6332   -7.5456 N   0  0  0  0  0  0  0  0  0  0  0  0
  -29.0617   -6.5747   -7.6136 C   0  0  0  0  0  0  0  0  0  0  0  0
  -28.2620   -7.5335   -7.1366 N   0  0  0  0  0  0  0  0  0  0  0  0
  -26.8394  -11.6454   -3.3767 C   0  0  0  0  0  0  0  0  0  0  0  0
  -27.0454  -10.9200   -4.6555 C   0  0  0  0  0  0  0  0  0  0  0  0
  -28.0668  -10.0628   -4.7879 N   0  0  0  0  0  0  0  0  0  0  0  0
  -27.9992   -9.6480   -6.0796 N   0  0  0  0  0  0  0  0  0  0  0  0
  -26.9786  -10.2755   -6.7584 C   0  0  0  0  0  0  0  0  0  0  0  0
  -26.2441  -10.9816   -5.8276 C   0  0  0  0  0  0  0  0  0  0  0  0
  -24.8886  -11.5873   -6.0049 C   0  0  0  0  0  0  0  0  0  0  0  0
  -23.8501  -10.8345   -5.2974 N   0  0  0  0  0  0  0  0  0  0  0  0
  -22.7968  -11.7091   -4.7503 C   0  0  0  0  0  0  0  0  0  0  0  0
  -21.5337  -11.5524   -5.5951 C   0  0  0  0  0  0  0  0  0  0  0  0
  -21.9166  -10.6227   -6.7272 C   0  0  0  0  0  0  0  0  0  0  0  0
  -22.1680  -11.4030   -7.8949 O   0  0  0  0  0  0  0  0  0  0  0  0
  -23.1555   -9.8978   -6.2035 C   0  0  0  0  0  0  0  0  0  0  0  0
  -23.0226  -11.1420   -8.2733 H   0  0  0  0  0  0  0  0  0  0  0  0
  -28.5507   -5.4394   -8.2503 N   0  0  0  0  0  0  0  0  0  0  0  0
  -27.7252   -5.7631   -8.7450 H   0  0  0  0  0  0  0  0  0  0  0  0
  -28.4112   -4.1329   -7.7418 C   0  0  0  0  0  0  0  0  0  0  0  0
  -27.9633   -3.0355   -8.4779 C   0  0  0  0  0  0  0  0  0  0  0  0
  -27.9626   -1.7333   -7.9479 C   0  0  0  0  0  0  0  0  0  0  0  0
  -28.4982   -1.5435   -6.6701 C   0  0  0  0  0  0  0  0  0  0  0  0
  -28.9176   -2.6226   -5.8963 C   0  0  0  0  0  0  0  0  0  0  0  0
  -28.7591   -3.9285   -6.4039 C   0  0  0  0  0  0  0  0  0  0  0  0
  -29.5416   -2.1217   -4.7073 C   0  0  0  0  0  0  0  0  0  0  0  0
  -29.4207   -0.7430   -4.7676 C   0  0  0  0  0  0  0  0  0  0  0  0
  -28.7395   -0.4142   -5.9225 N   0  0  0  0  0  0  0  0  0  0  0  0
  -28.3926    0.9331   -6.3095 C   0  0  0  0  0  0  0  0  0  0  0  0
  -30.2206   -2.9620   -3.7210 C   0  0  0  0  0  0  0  0  0  0  0  0
  -30.0369   -2.8420   -2.5141 O   0  0  0  0  0  0  0  0  0  0  0  0
  -31.1629   -4.0152   -4.2020 C   0  0  0  0  0  0  0  0  0  0  0  0
  -31.9515   -4.7919   -3.1700 C   0  0  0  0  0  0  0  0  0  0  0  0
  -30.8486   -5.4743   -3.9227 C   0  0  0  0  0  0  0  0  0  0  0  0
  7  8  1  0  0  0
  8  9  2  0  0  0
  8 12  1  0  0  0
  9 10  1  0  0  0
 10  1  1  0  0  0
 10 11  1  0  0  0
  1  2  1  0  0  0
  1  6  2  0  0  0
  2  3  2  0  0  0
  3  4  1  0  0  0
  4  5  2  0  0  0
  5 21  1  0  0  0
  5  6  1  0  0  0
 21 23  1  0  0  0
 21 22  1  0  0  0
 23 24  1  0  0  0
 23 28  2  0  0  0
 24 25  2  0  0  0
 25 26  1  0  0  0
 26 27  2  0  0  0
 26 31  1  0  0  0
 27 28  1  0  0  0
 27 29  1  0  0  0
 29 33  1  0  0  0
 29 30  2  0  0  0
 33 34  2  0  0  0
 33 35  1  0  0  0
 35 36  1  0  0  0
 35 37  1  0  0  0
 36 37  1  0  0  0
 30 31  1  0  0  0
 31 32  1  0  0  0
 11 12  2  0  0  0
 12 13  1  0  0  0
 13 14  1  0  0  0
 14 15  1  0  0  0
 14 19  1  0  0  0
 15 16  1  0  0  0
 16 17  1  0  0  0
 17 18  1  0  0  0
 17 19  1  0  0  0
 18 20  1  0  0  0
M  END
> <minimizedAffinity>
-9.22563

$$$$
