CHEMBL306707


 24 26  0  0  0  0  0  0  0  0999 V2000
  -15.6012    2.2612  -16.8810 C   0  0  0  0  0  0  0  0  0  0  0  0
  -15.9700    1.7151  -15.5266 C   0  0  0  0  0  0  0  0  0  0  0  0
  -17.1762    2.0506  -14.9000 C   0  0  0  0  0  0  0  0  0  0  0  0
  -17.4830    1.5644  -13.6777 N   0  0  0  0  0  0  0  0  0  0  0  0
  -16.6411    0.7005  -13.0438 N   0  0  0  0  0  0  0  0  0  0  0  0
  -15.4939    0.2902  -13.6220 C   0  0  0  0  0  0  0  0  0  0  0  0
  -15.1224    0.7784  -14.8811 C   0  0  0  0  0  0  0  0  0  0  0  0
  -13.8941    0.2538  -15.5832 C   0  0  0  0  0  0  0  0  0  0  0  0
  -14.6575   -0.6221  -12.9342 N   0  0  0  0  0  0  0  0  0  0  0  0
  -14.3385   -0.1916  -12.0754 H   0  0  0  0  0  0  0  0  0  0  0  0
  -14.9046   -2.0047  -12.8015 C   0  0  0  0  0  0  0  0  0  0  0  0
  -15.7115   -2.5033  -11.7678 C   0  0  0  0  0  0  0  0  0  0  0  0
  -15.9817   -3.8673  -11.6547 C   0  0  0  0  0  0  0  0  0  0  0  0
  -15.4587   -4.7500  -12.5927 C   0  0  0  0  0  0  0  0  0  0  0  0
  -15.7692   -6.4354  -12.4466 Cl  0  0  0  0  0  0  0  0  0  0  0  0
  -14.6889   -4.2738  -13.6515 C   0  0  0  0  0  0  0  0  0  0  0  0
  -14.4252   -2.9045  -13.7641 C   0  0  0  0  0  0  0  0  0  0  0  0
  -18.2842    2.8591  -15.5355 C   0  0  0  0  0  0  0  0  0  0  0  0
  -19.6628    2.4317  -15.0766 C   0  0  0  0  0  0  0  0  0  0  0  0
  -20.5626    3.3708  -14.5554 C   0  0  0  0  0  0  0  0  0  0  0  0
  -21.7973    2.9361  -14.1001 C   0  0  0  0  0  0  0  0  0  0  0  0
  -22.2003    1.6492  -14.1436 N   0  0  0  0  0  0  0  0  0  0  0  0
  -21.3301    0.7619  -14.6701 C   0  0  0  0  0  0  0  0  0  0  0  0
  -20.0701    1.0979  -15.1457 C   0  0  0  0  0  0  0  0  0  0  0  0
  1  2  1  0  0  0
  2  3  1  0  0  0
  2  7  2  0  0  0
  3 18  1  0  0  0
  3  4  2  0  0  0
 18 19  1  0  0  0
 19 20  1  0  0  0
 19 24  2  0  0  0
 20 21  2  0  0  0
 21 22  1  0  0  0
 22 23  2  0  0  0
 23 24  1  0  0  0
  4  5  1  0  0  0
  5  6  2  0  0  0
  6  9  1  0  0  0
  6  7  1  0  0  0
  9 11  1  0  0  0
  9 10  1  0  0  0
 11 12  1  0  0  0
 11 17  2  0  0  0
 12 13  2  0  0  0
 13 14  1  0  0  0
 14 15  1  0  0  0
 14 16  2  0  0  0
 16 17  1  0  0  0
  7  8  1  0  0  0
M  END
> <minimizedAffinity>
-7.57858

$$$$
