CHEMBL188284


 27 29  0  0  0  0  0  0  0  0999 V2000
  -30.4051   -6.0349   -5.4872 C   0  0  0  0  0  0  0  0  0  0  0  0
  -31.4885   -6.0750   -4.6143 C   0  0  0  0  0  0  0  0  0  0  0  0
  -31.6945   -5.1548   -3.6423 N   0  0  0  0  0  0  0  0  0  0  0  0
  -30.7579   -4.1782   -3.5760 C   0  0  0  0  0  0  0  0  0  0  0  0
  -29.6273   -4.1269   -4.3917 C   0  0  0  0  0  0  0  0  0  0  0  0
  -29.4603   -5.0645   -5.3557 N   0  0  0  0  0  0  0  0  0  0  0  0
  -28.8633   -7.9681   -8.4021 C   0  0  0  0  0  0  0  0  0  0  0  0
  -29.8943   -8.8969   -8.5488 C   0  0  0  0  0  0  0  0  0  0  0  0
  -31.0313   -8.9243   -7.8187 N   0  0  0  0  0  0  0  0  0  0  0  0
  -31.1462   -7.9857   -6.8501 C   0  0  0  0  0  0  0  0  0  0  0  0
  -30.1940   -7.0033   -6.5739 C   0  0  0  0  0  0  0  0  0  0  0  0
  -29.0338   -7.0277   -7.3744 C   0  0  0  0  0  0  0  0  0  0  0  0
  -27.6509   -8.0017   -9.1044 N   0  0  0  0  0  0  0  0  0  0  0  0
  -27.6698   -7.4206   -9.9421 H   0  0  0  0  0  0  0  0  0  0  0  0
  -27.0324   -9.3055   -9.3722 C   0  0  0  0  0  0  0  0  0  0  0  0
  -26.4560   -8.6342  -11.6314 O   0  0  0  0  0  0  0  0  0  0  0  0
  -27.1068   -9.6457  -10.8624 C   0  0  0  0  0  0  0  0  0  0  0  0
  -26.5939   -8.8638  -12.5672 H   0  0  0  0  0  0  0  0  0  0  0  0
  -28.7176   -3.0486   -4.2813 N   0  0  0  0  0  0  0  0  0  0  0  0
  -27.7684   -3.3880   -4.1545 H   0  0  0  0  0  0  0  0  0  0  0  0
  -28.6780   -1.9248   -5.1454 C   0  0  0  0  0  0  0  0  0  0  0  0
  -27.6560   -1.7413   -6.0879 C   0  0  0  0  0  0  0  0  0  0  0  0
  -27.5925   -0.5816   -6.8637 C   0  0  0  0  0  0  0  0  0  0  0  0
  -28.5464    0.4187   -6.6957 C   0  0  0  0  0  0  0  0  0  0  0  0
  -29.5519    0.2566   -5.7452 C   0  0  0  0  0  0  0  0  0  0  0  0
  -30.7241    1.4988   -5.5279 Cl  0  0  0  0  0  0  0  0  0  0  0  0
  -29.6125   -0.8980   -4.9626 C   0  0  0  0  0  0  0  0  0  0  0  0
 16 17  1  0  0  0
 16 18  1  0  0  0
 17 15  1  0  0  0
 15 13  1  0  0  0
 13  7  1  0  0  0
 13 14  1  0  0  0
  7  8  1  0  0  0
  7 12  2  0  0  0
  8  9  2  0  0  0
  9 10  1  0  0  0
 10 11  2  0  0  0
 11  1  1  0  0  0
 11 12  1  0  0  0
  1  2  1  0  0  0
  1  6  2  0  0  0
  2  3  2  0  0  0
  3  4  1  0  0  0
  4  5  2  0  0  0
  5 19  1  0  0  0
  5  6  1  0  0  0
 19 21  1  0  0  0
 19 20  1  0  0  0
 21 22  1  0  0  0
 21 27  2  0  0  0
 22 23  2  0  0  0
 23 24  1  0  0  0
 24 25  2  0  0  0
 25 26  1  0  0  0
 25 27  1  0  0  0
M  END
> <minimizedAffinity>
-8.24526

$$$$
