CHEMBL3828416


 37 41  0  0  0  0  0  0  0  0999 V2000
  -28.9811   -9.2722   -6.8395 N   0  0  0  0  0  0  0  0  0  0  0  0
  -27.5743   -9.3325   -6.7355 C   0  0  0  0  0  0  0  0  0  0  0  0
  -26.8701   -9.9035   -7.7473 C   0  0  0  0  0  0  0  0  0  0  0  0
  -27.4632  -10.0798   -9.0410 C   0  0  0  0  0  0  0  0  0  0  0  0
  -26.7121   -9.9492  -10.2135 C   0  0  0  0  0  0  0  0  0  0  0  0
  -27.3601  -10.0267  -11.4368 C   0  0  0  0  0  0  0  0  0  0  0  0
  -28.7315  -10.2878  -11.4797 C   0  0  0  0  0  0  0  0  0  0  0  0
  -29.3778  -10.3409  -12.6884 O   0  0  0  0  0  0  0  0  0  0  0  0
  -29.4837  -10.4636  -10.3147 C   0  0  0  0  0  0  0  0  0  0  0  0
  -28.8418  -10.3257   -9.0783 C   0  0  0  0  0  0  0  0  0  0  0  0
  -29.5666  -10.2349   -7.7730 C   0  0  0  0  0  0  0  0  0  0  0  0
  -30.6382  -10.8281   -7.6032 O   0  0  0  0  0  0  0  0  0  0  0  0
  -25.8396  -10.7719   -7.1540 C   0  0  0  0  0  0  0  0  0  0  0  0
  -24.9675  -11.3731   -7.7373 O   0  0  0  0  0  0  0  0  0  0  0  0
  -26.1127  -10.7602   -5.7309 C   0  0  0  0  0  0  0  0  0  0  0  0
  -25.8275  -11.6874   -4.7659 C   0  0  0  0  0  0  0  0  0  0  0  0
  -26.1521  -11.3155   -3.4722 C   0  0  0  0  0  0  0  0  0  0  0  0
  -26.1669  -12.2448   -2.4792 O   0  0  0  0  0  0  0  0  0  0  0  0
  -26.5717  -10.0117   -3.1675 C   0  0  0  0  0  0  0  0  0  0  0  0
  -27.0075   -9.1729   -4.1961 C   0  0  0  0  0  0  0  0  0  0  0  0
  -26.9077   -9.6569   -5.4874 C   0  0  0  0  0  0  0  0  0  0  0  0
  -28.7489  -10.1235  -13.3892 H   0  0  0  0  0  0  0  0  0  0  0  0
  -26.6030  -13.0344   -2.8544 H   0  0  0  0  0  0  0  0  0  0  0  0
  -29.6353   -5.3458   -6.3240 C   0  0  0  0  0  0  0  0  0  0  0  0
  -28.8055   -5.7296   -7.3806 C   0  0  0  0  0  0  0  0  0  0  0  0
  -28.7946   -7.0503   -7.8001 C   0  0  0  0  0  0  0  0  0  0  0  0
  -29.5887   -7.9860   -7.1341 C   0  0  0  0  0  0  0  0  0  0  0  0
  -30.6299   -7.5419   -6.2994 C   0  0  0  0  0  0  0  0  0  0  0  0
  -30.6065   -6.2255   -5.8514 C   0  0  0  0  0  0  0  0  0  0  0  0
  -29.5371   -4.1621   -5.6423 O   0  0  0  0  0  0  0  0  0  0  0  0
  -28.3501   -4.0407   -4.8501 C   0  0  0  0  0  0  0  0  0  0  0  0
  -27.7031   -2.6773   -5.0984 C   0  0  0  0  0  0  0  0  0  0  0  0
  -28.5433   -1.7542   -5.8884 N   0  0  0  0  0  0  0  0  0  0  0  0
  -28.3826    0.6648   -5.2111 C   0  0  0  0  0  0  0  0  0  0  0  0
  -29.0516   -0.6896   -5.0104 C   0  0  0  0  0  0  0  0  0  0  0  0
  -27.9110   -1.2733   -7.1275 C   0  0  0  0  0  0  0  0  0  0  0  0
  -27.9000   -2.2457   -8.3018 C   0  0  0  0  0  0  0  0  0  0  0  0
 34 35  1  0  0  0
 35 33  1  0  0  0
 33 36  1  0  0  0
 33 32  1  0  0  0
 36 37  1  0  0  0
 32 31  1  0  0  0
 31 30  1  0  0  0
 30 24  1  0  0  0
 24 25  1  0  0  0
 24 29  2  0  0  0
 25 26  2  0  0  0
 26 27  1  0  0  0
 27  1  1  0  0  0
 27 28  2  0  0  0
  1  2  1  0  0  0
  1 11  1  0  0  0
  2  3  2  0  0  0
  2 21  1  0  0  0
  3  4  1  0  0  0
  3 13  1  0  0  0
  4  5  1  0  0  0
  4 10  2  0  0  0
  5  6  2  0  0  0
  6  7  1  0  0  0
  7  8  1  0  0  0
  7  9  2  0  0  0
  8 22  1  0  0  0
  9 10  1  0  0  0
 10 11  1  0  0  0
 11 12  2  0  0  0
 13 14  2  0  0  0
 13 15  1  0  0  0
 15 16  1  0  0  0
 15 21  2  0  0  0
 16 17  2  0  0  0
 17 18  1  0  0  0
 17 19  1  0  0  0
 18 23  1  0  0  0
 19 20  2  0  0  0
 20 21  1  0  0  0
 28 29  1  0  0  0
M  END
> <minimizedAffinity>
-8.45037

$$$$
