CHEMBL3957914


 33 37  0  0  0  0  0  0  0  0999 V2000
  -17.1165    2.1193  -15.5162 N   0  0  0  0  0  0  0  0  0  0  0  0
  -18.5655    1.9538  -15.5263 C   0  0  0  0  0  0  0  0  0  0  0  0
  -19.2710    3.1437  -15.7200 C   0  0  0  0  0  0  0  0  0  0  0  0
  -20.5415    3.2899  -15.1851 C   0  0  0  0  0  0  0  0  0  0  0  0
  -21.2097    2.2628  -14.5661 C   0  0  0  0  0  0  0  0  0  0  0  0
  -22.3235    2.6536  -13.9420 N   0  0  0  0  0  0  0  0  0  0  0  0
  -23.1311    1.6906  -13.4879 C   0  0  0  0  0  0  0  0  0  0  0  0
  -22.8883    0.3547  -13.7391 C   0  0  0  0  0  0  0  0  0  0  0  0
  -21.6755   -0.0548  -14.2733 N   0  0  0  0  0  0  0  0  0  0  0  0
  -20.7490    0.9360  -14.6573 C   0  0  0  0  0  0  0  0  0  0  0  0
  -19.3430    0.8286  -15.0887 C   0  0  0  0  0  0  0  0  0  0  0  0
  -24.0457   -0.5286  -13.5632 C   0  0  0  0  0  0  0  0  0  0  0  0
  -24.8584   -1.1477  -14.5531 C   0  0  0  0  0  0  0  0  0  0  0  0
  -26.0015   -1.6462  -14.0621 N   0  0  0  0  0  0  0  0  0  0  0  0
  -25.9442   -1.3319  -12.7577 N   0  0  0  0  0  0  0  0  0  0  0  0
  -26.8818   -1.9114  -11.8223 C   0  0  0  0  0  0  0  0  0  0  0  0
  -24.8819   -0.5234  -12.4523 C   0  0  0  0  0  0  0  0  0  0  0  0
  -13.8687    0.1681  -15.5884 C   0  0  0  0  0  0  0  0  0  0  0  0
  -13.8827   -0.4447  -14.3360 C   0  0  0  0  0  0  0  0  0  0  0  0
  -14.9740   -0.2676  -13.5017 C   0  0  0  0  0  0  0  0  0  0  0  0
  -16.0362    0.5526  -13.9161 C   0  0  0  0  0  0  0  0  0  0  0  0
  -16.0841    1.1968  -15.1717 C   0  0  0  0  0  0  0  0  0  0  0  0
  -14.9810    0.9510  -16.0081 C   0  0  0  0  0  0  0  0  0  0  0  0
  -12.6282    1.2061  -17.3550 C   0  0  0  0  0  0  0  0  0  0  0  0
  -12.8053    0.1040  -16.4583 O   0  0  0  0  0  0  0  0  0  0  0  0
  -15.0990   -0.7915  -12.2404 O   0  0  0  0  0  0  0  0  0  0  0  0
  -15.4589   -2.1678  -12.1635 C   0  0  0  0  0  0  0  0  0  0  0  0
  -16.8064    3.6044  -15.4225 C   0  0  0  0  0  0  0  0  0  0  0  0
  -15.8078    4.3279  -16.3790 C   0  0  0  0  0  0  0  0  0  0  0  0
  -15.7161    3.9779  -17.8711 C   0  0  0  0  0  0  0  0  0  0  0  0
  -14.5833    4.8821  -18.3967 C   0  0  0  0  0  0  0  0  0  0  0  0
  -13.7324    5.2449  -17.1792 C   0  0  0  0  0  0  0  0  0  0  0  0
  -14.3333    4.4640  -16.0042 C   0  0  0  0  0  0  0  0  0  0  0  0
 24 25  1  0  0  0
 25 18  1  0  0  0
 18 19  1  0  0  0
 18 23  2  0  0  0
 19 20  2  0  0  0
 20 26  1  0  0  0
 20 21  1  0  0  0
 26 27  1  0  0  0
 21 22  2  0  0  0
 22  1  1  0  0  0
 22 23  1  0  0  0
  1 28  1  0  0  0
  1  2  1  0  0  0
 28 29  1  0  0  0
 29 30  1  0  0  0
 29 33  1  0  0  0
 30 31  1  0  0  0
 31 32  1  0  0  0
 32 33  1  0  0  0
  2  3  1  0  0  0
  2 11  2  0  0  0
  3  4  2  0  0  0
  4  5  1  0  0  0
  5  6  1  0  0  0
  5 10  2  0  0  0
  6  7  2  0  0  0
  7  8  1  0  0  0
  8 12  1  0  0  0
  8  9  2  0  0  0
 12 13  1  0  0  0
 12 17  2  0  0  0
 13 14  2  0  0  0
 14 15  1  0  0  0
 15 16  1  0  0  0
 15 17  1  0  0  0
  9 10  1  0  0  0
 10 11  1  0  0  0
M  END
> <minimizedAffinity>
-9.06659

$$$$
