CHEMBL3696080


 46 49  0  0  0  0  0  0  0  0999 V2000
  -29.2813   -1.6844   -5.4559 C   0  0  0  0  0  0  0  0  0  0  0  0
  -29.3842   -1.7597   -4.1221 N   0  0  0  0  0  0  0  0  0  0  0  0
  -28.8384   -3.2049   -3.5758 S   0  0  0  0  0  0  0  0  0  0  0  0
  -28.5833   -3.8742   -5.1117 C   0  0  0  0  0  0  0  0  0  0  0  0
  -28.7914   -2.9149   -6.0908 C   0  0  0  0  0  0  0  0  0  0  0  0
  -30.8391    2.0390   -6.9892 C   0  0  0  0  0  0  0  0  0  0  0  0
  -31.6744    1.0949   -6.4031 C   0  0  0  0  0  0  0  0  0  0  0  0
  -31.1560   -0.1301   -5.9734 C   0  0  0  0  0  0  0  0  0  0  0  0
  -29.7876   -0.4445   -6.0976 C   0  0  0  0  0  0  0  0  0  0  0  0
  -28.9382    0.5045   -6.7234 C   0  0  0  0  0  0  0  0  0  0  0  0
  -27.4430    0.3490   -6.8695 C   0  0  0  0  0  0  0  0  0  0  0  0
  -29.4845    1.7350   -7.1619 C   0  0  0  0  0  0  0  0  0  0  0  0
  -32.6718    4.7182   -8.6045 N   0  0  0  0  0  0  0  0  0  0  0  0
  -32.2762    3.4003   -8.4013 C   0  0  0  0  0  0  0  0  0  0  0  0
  -32.6978    2.4183   -8.9888 O   0  0  0  0  0  0  0  0  0  0  0  0
  -31.3777    3.2990   -7.3463 N   0  0  0  0  0  0  0  0  0  0  0  0
  -32.3181    5.4101   -7.9604 H   0  0  0  0  0  0  0  0  0  0  0  0
  -31.5670    3.9231   -6.5785 H   0  0  0  0  0  0  0  0  0  0  0  0
  -34.1328    8.2721  -11.7605 C   0  0  0  0  0  0  0  0  0  0  0  0
  -34.3613    6.9503  -11.0855 C   0  0  0  0  0  0  0  0  0  0  0  0
  -35.5339    6.2352  -11.3646 C   0  0  0  0  0  0  0  0  0  0  0  0
  -35.7348    4.9882  -10.7811 C   0  0  0  0  0  0  0  0  0  0  0  0
  -34.7923    4.4559   -9.9139 C   0  0  0  0  0  0  0  0  0  0  0  0
  -35.0175    3.1987   -9.5130 F   0  0  0  0  0  0  0  0  0  0  0  0
  -33.6404    5.1671   -9.5576 C   0  0  0  0  0  0  0  0  0  0  0  0
  -33.4225    6.4088  -10.1841 C   0  0  0  0  0  0  0  0  0  0  0  0
  -28.2902   -5.2275   -5.1925 N   0  0  0  0  0  0  0  0  0  0  0  0
  -29.3140   -6.0817   -5.5517 C   0  0  0  0  0  0  0  0  0  0  0  0
  -30.4936   -5.7576   -5.6428 O   0  0  0  0  0  0  0  0  0  0  0  0
  -28.8702   -7.3545   -5.8237 N   0  0  0  0  0  0  0  0  0  0  0  0
  -27.6773   -5.5896   -4.4708 H   0  0  0  0  0  0  0  0  0  0  0  0
  -27.9392   -7.6104   -5.5299 H   0  0  0  0  0  0  0  0  0  0  0  0
  -29.8093   -8.4063   -6.1678 C   0  0  0  0  0  0  0  0  0  0  0  0
  -29.1940   -9.8068   -6.1069 C   0  0  0  0  0  0  0  0  0  0  0  0
  -29.0589  -10.4063   -7.5097 C   0  0  0  0  0  0  0  0  0  0  0  0
  -28.8769   -9.3929   -8.5652 N   0  0  0  0  0  0  0  0  0  0  0  0
  -29.4900   -9.7716   -9.8626 C   0  0  0  0  0  0  0  0  0  0  0  0
  -28.7738  -10.9353  -10.5667 C   0  0  0  0  0  0  0  0  0  0  0  0
  -27.3902  -10.6281  -10.7900 O   0  0  0  0  0  0  0  0  0  0  0  0
  -26.7311  -10.3041   -9.5589 C   0  0  0  0  0  0  0  0  0  0  0  0
  -27.4364   -9.1503   -8.8204 C   0  0  0  0  0  0  0  0  0  0  0  0
  -28.5414   -3.1959   -7.4948 C   0  0  0  0  0  0  0  0  0  0  0  0
  -29.5150   -3.8326   -8.1865 N   0  0  0  0  0  0  0  0  0  0  0  0
  -27.5085   -2.8331   -8.0536 O   0  0  0  0  0  0  0  0  0  0  0  0
  -30.4328   -4.0364   -7.8102 H   0  0  0  0  0  0  0  0  0  0  0  0
  -29.3562   -4.0292   -9.1700 H   0  0  0  0  0  0  0  0  0  0  0  0
 19 20  1  0  0  0
 20 21  1  0  0  0
 20 26  2  0  0  0
 21 22  2  0  0  0
 22 23  1  0  0  0
 23 24  1  0  0  0
 23 25  2  0  0  0
 25 13  1  0  0  0
 25 26  1  0  0  0
 13 14  1  0  0  0
 13 17  1  0  0  0
 14 15  2  0  0  0
 14 16  1  0  0  0
 16  6  1  0  0  0
 16 18  1  0  0  0
  6  7  1  0  0  0
  6 12  2  0  0  0
  7  8  2  0  0  0
  8  9  1  0  0  0
  9  1  1  0  0  0
  9 10  2  0  0  0
  1  2  2  0  0  0
  1  5  1  0  0  0
  2  3  1  0  0  0
  3  4  1  0  0  0
  4 27  1  0  0  0
  4  5  2  0  0  0
 27 28  1  0  0  0
 27 31  1  0  0  0
 28 29  2  0  0  0
 28 30  1  0  0  0
 30 33  1  0  0  0
 30 32  1  0  0  0
 33 34  1  0  0  0
 34 35  1  0  0  0
 35 36  1  0  0  0
 36 37  1  0  0  0
 36 41  1  0  0  0
 37 38  1  0  0  0
 38 39  1  0  0  0
 39 40  1  0  0  0
 40 41  1  0  0  0
  5 42  1  0  0  0
 42 43  1  0  0  0
 42 44  2  0  0  0
 43 45  1  0  0  0
 43 46  1  0  0  0
 10 11  1  0  0  0
 10 12  1  0  0  0
M  END
> <minimizedAffinity>
-5.73496

$$$$
