CHEMBL250625


 38 42  0  0  0  0  0  0  0  0999 V2000
  -25.3845   -1.2048  -15.4743 C   0  0  0  0  0  0  0  0  0  0  0  0
  -24.3734   -0.7191  -14.4710 C   0  0  0  0  0  0  0  0  0  0  0  0
  -23.2002   -0.0812  -14.9238 C   0  0  0  0  0  0  0  0  0  0  0  0
  -22.2437    0.4494  -14.0411 C   0  0  0  0  0  0  0  0  0  0  0  0
  -22.5552    0.3576  -12.6820 C   0  0  0  0  0  0  0  0  0  0  0  0
  -23.6608   -0.3481  -12.2193 C   0  0  0  0  0  0  0  0  0  0  0  0
  -23.8233   -0.5105  -10.9099 N   0  0  0  0  0  0  0  0  0  0  0  0
  -24.8584   -1.2625  -10.4637 N   0  0  0  0  0  0  0  0  0  0  0  0
  -25.7474   -1.7955  -11.3292 C   0  0  0  0  0  0  0  0  0  0  0  0
  -25.6498   -1.6245  -12.6557 N   0  0  0  0  0  0  0  0  0  0  0  0
  -24.5914   -0.9117  -13.1046 C   0  0  0  0  0  0  0  0  0  0  0  0
  -20.9756    1.0514  -14.5484 C   0  0  0  0  0  0  0  0  0  0  0  0
  -19.8829    0.1974  -14.8346 C   0  0  0  0  0  0  0  0  0  0  0  0
  -18.6350    0.7021  -15.2017 C   0  0  0  0  0  0  0  0  0  0  0  0
  -17.5701   -0.1211  -15.4151 O   0  0  0  0  0  0  0  0  0  0  0  0
  -18.4327    2.0628  -15.3463 C   0  0  0  0  0  0  0  0  0  0  0  0
  -19.4923    2.9320  -15.1162 C   0  0  0  0  0  0  0  0  0  0  0  0
  -20.7436    2.4419  -14.7065 C   0  0  0  0  0  0  0  0  0  0  0  0
  -21.9162    3.6664  -14.3409 Cl  0  0  0  0  0  0  0  0  0  0  0  0
  -17.8420   -1.0416  -15.2669 H   0  0  0  0  0  0  0  0  0  0  0  0
  -26.8062   -2.5685  -10.8362 N   0  0  0  0  0  0  0  0  0  0  0  0
  -27.4581   -2.8036  -11.5698 H   0  0  0  0  0  0  0  0  0  0  0  0
  -27.3295   -2.4859   -9.5347 C   0  0  0  0  0  0  0  0  0  0  0  0
  -27.9065   -3.6052   -8.9161 C   0  0  0  0  0  0  0  0  0  0  0  0
  -28.5546   -3.5005   -7.6873 C   0  0  0  0  0  0  0  0  0  0  0  0
  -28.5938   -2.2741   -7.0294 C   0  0  0  0  0  0  0  0  0  0  0  0
  -27.9880   -1.1520   -7.6117 C   0  0  0  0  0  0  0  0  0  0  0  0
  -27.3342   -1.2713   -8.8483 C   0  0  0  0  0  0  0  0  0  0  0  0
  -29.6563   -2.0971   -5.6178 S   0  0  0  0  0  0  0  0  0  0  0  0
  -29.9035   -0.6725   -5.4748 O   0  0  0  0  0  0  0  0  0  0  0  0
  -30.7890   -2.9829   -5.8355 O   0  0  0  0  0  0  0  0  0  0  0  0
  -28.8522   -2.6281   -4.1227 C   0  0  0  0  0  0  0  0  0  0  0  0
  -27.6914   -3.5958   -4.3193 C   0  0  0  0  0  0  0  0  0  0  0  0
  -28.1338   -5.0509   -4.4035 C   0  0  0  0  0  0  0  0  0  0  0  0
  -29.0117   -5.4496   -3.3104 N   0  0  0  0  0  0  0  0  0  0  0  0
  -30.1579   -4.5700   -3.1133 C   0  0  0  0  0  0  0  0  0  0  0  0
  -29.7797   -3.0989   -3.0052 C   0  0  0  0  0  0  0  0  0  0  0  0
  -28.4787   -5.5286   -2.4448 H   0  0  0  0  0  0  0  0  0  0  0  0
  1  2  1  0  0  0
  2  3  1  0  0  0
  2 11  2  0  0  0
  3  4  2  0  0  0
  4 12  1  0  0  0
  4  5  1  0  0  0
 12 13  1  0  0  0
 12 18  2  0  0  0
 13 14  2  0  0  0
 14 15  1  0  0  0
 14 16  1  0  0  0
 15 20  1  0  0  0
 16 17  2  0  0  0
 17 18  1  0  0  0
 18 19  1  0  0  0
  5  6  2  0  0  0
  6  7  1  0  0  0
  6 11  1  0  0  0
  7  8  2  0  0  0
  8  9  1  0  0  0
  9 21  1  0  0  0
  9 10  2  0  0  0
 21 23  1  0  0  0
 21 22  1  0  0  0
 23 24  1  0  0  0
 23 28  2  0  0  0
 24 25  2  0  0  0
 25 26  1  0  0  0
 26 29  1  0  0  0
 26 27  2  0  0  0
 29 30  2  0  0  0
 29 31  2  0  0  0
 29 32  1  0  0  0
 32 33  1  0  0  0
 32 37  1  0  0  0
 33 34  1  0  0  0
 34 35  1  0  0  0
 35 36  1  0  0  0
 35 38  1  0  0  0
 36 37  1  0  0  0
 27 28  1  0  0  0
 10 11  1  0  0  0
M  END
> <minimizedAffinity>
-10.68335

$$$$
