CHEMBL448276


 47 53  0  0  0  0  0  0  0  0999 V2000
  -29.7001   -2.2507   -6.6319 O   0  0  0  0  0  0  0  0  0  0  0  0
  -29.4013   -2.7752   -5.4014 C   0  0  0  0  0  0  0  0  0  0  0  0
  -29.3475   -2.0657   -4.2012 C   0  0  0  0  0  0  0  0  0  0  0  0
  -28.9581   -2.7268   -3.0514 C   0  0  0  0  0  0  0  0  0  0  0  0
  -28.6722   -4.0388   -2.9674 N   0  0  0  0  0  0  0  0  0  0  0  0
  -28.8259   -4.7472   -4.1182 C   0  0  0  0  0  0  0  0  0  0  0  0
  -28.6369   -6.1535   -4.2460 C   0  0  0  0  0  0  0  0  0  0  0  0
  -28.9390   -6.6472   -5.5039 C   0  0  0  0  0  0  0  0  0  0  0  0
  -29.3537   -5.3548   -6.5561 S   0  0  0  0  0  0  0  0  0  0  0  0
  -29.1973   -4.1639   -5.3239 C   0  0  0  0  0  0  0  0  0  0  0  0
  -28.9950   -8.0574   -5.9519 C   0  0  0  0  0  0  0  0  0  0  0  0
  -30.1908   -8.5614   -6.4877 C   0  0  0  0  0  0  0  0  0  0  0  0
  -30.2680   -9.8547   -7.0157 C   0  0  0  0  0  0  0  0  0  0  0  0
  -29.1436  -10.6865   -7.0404 C   0  0  0  0  0  0  0  0  0  0  0  0
  -27.9627  -10.2209   -6.4489 C   0  0  0  0  0  0  0  0  0  0  0  0
  -27.8910   -8.9245   -5.9111 C   0  0  0  0  0  0  0  0  0  0  0  0
  -29.2080  -12.0347   -7.7385 C   0  0  0  0  0  0  0  0  0  0  0  0
  -29.1575  -11.9330   -9.2082 N   0  0  0  0  0  0  0  0  0  0  0  0
  -27.9003  -12.4660   -9.7579 C   0  0  0  0  0  0  0  0  0  0  0  0
  -26.6675  -11.5637   -9.5421 C   0  0  0  0  0  0  0  0  0  0  0  0
  -26.8113  -10.1877  -10.0286 N   0  0  0  0  0  0  0  0  0  0  0  0
  -28.1377   -9.6182   -9.7447 C   0  0  0  0  0  0  0  0  0  0  0  0
  -29.3590  -10.5744   -9.7412 C   0  0  0  0  0  0  0  0  0  0  0  0
  -26.6485  -10.1690  -11.0338 H   0  0  0  0  0  0  0  0  0  0  0  0
  -26.8584   -1.8062   -9.6354 C   0  0  0  0  0  0  0  0  0  0  0  0
  -27.5262   -3.0079   -9.4204 C   0  0  0  0  0  0  0  0  0  0  0  0
  -28.4622   -3.1190   -8.3971 C   0  0  0  0  0  0  0  0  0  0  0  0
  -28.7222   -2.0373   -7.5674 C   0  0  0  0  0  0  0  0  0  0  0  0
  -27.9530   -0.8824   -7.7031 C   0  0  0  0  0  0  0  0  0  0  0  0
  -28.1015    0.1496   -6.8601 F   0  0  0  0  0  0  0  0  0  0  0  0
  -27.0391   -0.7491   -8.7475 C   0  0  0  0  0  0  0  0  0  0  0  0
  -27.3815   -2.3240  -12.4820 O   0  0  0  0  0  0  0  0  0  0  0  0
  -26.3206   -1.8594  -12.0692 C   0  0  0  0  0  0  0  0  0  0  0  0
  -26.0201   -1.5980  -10.7467 N   0  0  0  0  0  0  0  0  0  0  0  0
  -25.3321   -1.4853  -12.9609 N   0  0  0  0  0  0  0  0  0  0  0  0
  -25.4803   -1.6588  -14.3860 C   0  0  0  0  0  0  0  0  0  0  0  0
  -24.7177   -0.4828  -14.9676 C   0  0  0  0  0  0  0  0  0  0  0  0
  -23.7617   -0.1644  -13.9326 N   0  0  0  0  0  0  0  0  0  0  0  0
  -24.2268   -0.6565  -12.6976 C   0  0  0  0  0  0  0  0  0  0  0  0
  -23.8045   -0.4177  -11.5738 O   0  0  0  0  0  0  0  0  0  0  0  0
  -25.1583   -1.0767  -10.5875 H   0  0  0  0  0  0  0  0  0  0  0  0
  -22.6828    0.7332  -14.0862 C   0  0  0  0  0  0  0  0  0  0  0  0
  -22.8732    2.1067  -13.8819 C   0  0  0  0  0  0  0  0  0  0  0  0
  -21.8269    3.0121  -14.0527 C   0  0  0  0  0  0  0  0  0  0  0  0
  -20.5689    2.5540  -14.4321 C   0  0  0  0  0  0  0  0  0  0  0  0
  -20.3622    1.1867  -14.6161 C   0  0  0  0  0  0  0  0  0  0  0  0
  -21.4060    0.2810  -14.4324 C   0  0  0  0  0  0  0  0  0  0  0  0
 32 33  2  0  0  0
 33 34  1  0  0  0
 33 35  1  0  0  0
 34 25  1  0  0  0
 34 41  1  0  0  0
 25 26  1  0  0  0
 25 31  2  0  0  0
 26 27  2  0  0  0
 27 28  1  0  0  0
 28  1  1  0  0  0
 28 29  2  0  0  0
  1  2  1  0  0  0
  2  3  1  0  0  0
  2 10  2  0  0  0
  3  4  2  0  0  0
  4  5  1  0  0  0
  5  6  2  0  0  0
  6  7  1  0  0  0
  6 10  1  0  0  0
  7  8  2  0  0  0
  8 11  1  0  0  0
  8  9  1  0  0  0
 11 12  1  0  0  0
 11 16  2  0  0  0
 12 13  2  0  0  0
 13 14  1  0  0  0
 14 17  1  0  0  0
 14 15  2  0  0  0
 17 18  1  0  0  0
 18 19  1  0  0  0
 18 23  1  0  0  0
 19 20  1  0  0  0
 20 21  1  0  0  0
 21 22  1  0  0  0
 21 24  1  0  0  0
 22 23  1  0  0  0
 15 16  1  0  0  0
  9 10  1  0  0  0
 29 30  1  0  0  0
 29 31  1  0  0  0
 35 36  1  0  0  0
 35 39  1  0  0  0
 36 37  1  0  0  0
 37 38  1  0  0  0
 38 42  1  0  0  0
 38 39  1  0  0  0
 42 43  1  0  0  0
 42 47  2  0  0  0
 43 44  2  0  0  0
 44 45  1  0  0  0
 45 46  2  0  0  0
 46 47  1  0  0  0
 39 40  2  0  0  0
M  END
> <minimizedAffinity>
2.40388

$$$$
