CHEMBL4463359


 35 38  0  0  0  0  0  0  0  0999 V2000
  -29.0751   -6.2555   -6.8107 C   0  0  0  0  0  0  0  0  0  0  0  0
  -29.4175   -7.0550   -5.7193 C   0  0  0  0  0  0  0  0  0  0  0  0
  -29.3012   -8.4397   -5.7862 C   0  0  0  0  0  0  0  0  0  0  0  0
  -28.8060   -9.0591   -6.9401 C   0  0  0  0  0  0  0  0  0  0  0  0
  -28.5246   -8.2676   -8.0606 C   0  0  0  0  0  0  0  0  0  0  0  0
  -28.6770   -6.8718   -8.0019 C   0  0  0  0  0  0  0  0  0  0  0  0
  -28.5576   -4.0600   -5.7724 C   0  0  0  0  0  0  0  0  0  0  0  0
  -27.8684   -4.4441   -4.8352 O   0  0  0  0  0  0  0  0  0  0  0  0
  -29.1190   -4.8496   -6.7608 N   0  0  0  0  0  0  0  0  0  0  0  0
  -29.4646   -4.3841   -7.5955 H   0  0  0  0  0  0  0  0  0  0  0  0
  -29.0853    0.1729   -6.2344 C   0  0  0  0  0  0  0  0  0  0  0  0
  -28.0693   -0.5035   -6.9122 C   0  0  0  0  0  0  0  0  0  0  0  0
  -27.9225   -1.8746   -6.7473 C   0  0  0  0  0  0  0  0  0  0  0  0
  -28.7717   -2.5960   -5.9195 C   0  0  0  0  0  0  0  0  0  0  0  0
  -29.7764   -1.9241   -5.2164 C   0  0  0  0  0  0  0  0  0  0  0  0
  -29.9307   -0.5502   -5.3807 C   0  0  0  0  0  0  0  0  0  0  0  0
  -30.7081    1.8757   -6.5448 C   0  0  0  0  0  0  0  0  0  0  0  0
  -29.3540    1.5079   -6.3035 O   0  0  0  0  0  0  0  0  0  0  0  0
  -28.4494  -10.5120   -6.9901 C   0  0  0  0  0  0  0  0  0  0  0  0
  -28.5508  -11.1360   -8.0368 O   0  0  0  0  0  0  0  0  0  0  0  0
  -27.9057  -11.0194   -5.8119 N   0  0  0  0  0  0  0  0  0  0  0  0
  -27.8427  -10.3748   -5.0286 H   0  0  0  0  0  0  0  0  0  0  0  0
  -26.8785  -11.9002   -5.8839 N   0  0  0  0  0  0  0  0  0  0  0  0
  -26.3943  -12.2356   -4.7181 C   0  0  0  0  0  0  0  0  0  0  0  0
  -27.0109  -12.0042   -3.3355 C   0  0  0  0  0  0  0  0  0  0  0  0
  -28.1820  -11.8167   -3.0884 O   0  0  0  0  0  0  0  0  0  0  0  0
  -25.9388  -11.9564   -2.4761 N   0  0  0  0  0  0  0  0  0  0  0  0
  -24.7518  -12.0257   -3.2047 C   0  0  0  0  0  0  0  0  0  0  0  0
  -23.6028  -11.3279   -2.8939 C   0  0  0  0  0  0  0  0  0  0  0  0
  -22.6566  -11.1618   -3.9176 C   0  0  0  0  0  0  0  0  0  0  0  0
  -22.8351  -11.7638   -5.1804 C   0  0  0  0  0  0  0  0  0  0  0  0
  -21.5388  -11.5069   -6.5312 Br  0  0  0  0  0  0  0  0  0  0  0  0
  -24.0089  -12.4356   -5.4943 C   0  0  0  0  0  0  0  0  0  0  0  0
  -24.9766  -12.4659   -4.5070 C   0  0  0  0  0  0  0  0  0  0  0  0
  -26.0352  -12.2741   -1.5216 H   0  0  0  0  0  0  0  0  0  0  0  0
 17 18  1  0  0  0
 18 11  1  0  0  0
 11 12  1  0  0  0
 11 16  2  0  0  0
 12 13  2  0  0  0
 13 14  1  0  0  0
 14  7  1  0  0  0
 14 15  2  0  0  0
  7  8  2  0  0  0
  7  9  1  0  0  0
  9  1  1  0  0  0
  9 10  1  0  0  0
  1  2  1  0  0  0
  1  6  2  0  0  0
  2  3  2  0  0  0
  3  4  1  0  0  0
  4 19  1  0  0  0
  4  5  2  0  0  0
 19 20  2  0  0  0
 19 21  1  0  0  0
 21 23  1  0  0  0
 21 22  1  0  0  0
 23 24  2  0  0  0
 24 25  1  0  0  0
 24 34  1  0  0  0
 25 26  2  0  0  0
 25 27  1  0  0  0
 27 28  1  0  0  0
 27 35  1  0  0  0
 28 29  1  0  0  0
 28 34  2  0  0  0
 29 30  2  0  0  0
 30 31  1  0  0  0
 31 32  1  0  0  0
 31 33  2  0  0  0
 33 34  1  0  0  0
  5  6  1  0  0  0
 15 16  1  0  0  0
M  END
> <minimizedAffinity>
-8.14121

$$$$
