CHEMBL598418


 29 32  0  0  0  0  0  0  0  0999 V2000
  -30.1379   -7.6850   -6.7542 C   0  0  0  0  0  0  0  0  0  0  0  0
  -29.1988   -7.4306   -7.7466 C   0  0  0  0  0  0  0  0  0  0  0  0
  -28.7039   -6.1321   -7.9260 C   0  0  0  0  0  0  0  0  0  0  0  0
  -29.0853   -5.0666   -7.0854 C   0  0  0  0  0  0  0  0  0  0  0  0
  -30.0143   -5.3536   -6.0598 C   0  0  0  0  0  0  0  0  0  0  0  0
  -30.5725   -6.6354   -5.9467 C   0  0  0  0  0  0  0  0  0  0  0  0
  -30.4324   -4.4317   -5.0796 N   0  0  0  0  0  0  0  0  0  0  0  0
  -29.6839   -3.4539   -4.4835 C   0  0  0  0  0  0  0  0  0  0  0  0
  -30.1699   -2.7723   -3.5802 O   0  0  0  0  0  0  0  0  0  0  0  0
  -28.2385   -3.3025   -4.8927 C   0  0  0  0  0  0  0  0  0  0  0  0
  -28.1418   -2.8783   -6.3128 C   0  0  0  0  0  0  0  0  0  0  0  0
  -27.7040   -1.6285   -6.6908 C   0  0  0  0  0  0  0  0  0  0  0  0
  -27.6584   -1.2065   -7.9660 N   0  0  0  0  0  0  0  0  0  0  0  0
  -28.0356   -2.0853   -8.9029 C   0  0  0  0  0  0  0  0  0  0  0  0
  -28.4627   -3.3312   -8.6233 N   0  0  0  0  0  0  0  0  0  0  0  0
  -28.5420   -3.7148   -7.3324 C   0  0  0  0  0  0  0  0  0  0  0  0
  -31.3088   -4.6056   -4.5982 H   0  0  0  0  0  0  0  0  0  0  0  0
  -31.6178   -9.4335   -7.3854 C   0  0  0  0  0  0  0  0  0  0  0  0
  -30.6903   -8.8976   -6.4508 O   0  0  0  0  0  0  0  0  0  0  0  0
  -28.0126   -1.6381  -10.2202 N   0  0  0  0  0  0  0  0  0  0  0  0
  -28.7916   -1.0301  -10.4204 H   0  0  0  0  0  0  0  0  0  0  0  0
  -26.9432   -1.6378  -11.1227 C   0  0  0  0  0  0  0  0  0  0  0  0
  -25.6407   -1.4099  -10.6610 C   0  0  0  0  0  0  0  0  0  0  0  0
  -24.5751   -1.2837  -11.5588 C   0  0  0  0  0  0  0  0  0  0  0  0
  -24.8161   -1.4015  -12.9249 C   0  0  0  0  0  0  0  0  0  0  0  0
  -23.8217   -1.2470  -13.8452 O   0  0  0  0  0  0  0  0  0  0  0  0
  -26.0892   -1.6680  -13.4029 C   0  0  0  0  0  0  0  0  0  0  0  0
  -27.1478   -1.7744  -12.5048 C   0  0  0  0  0  0  0  0  0  0  0  0
  -23.0352   -0.9075  -13.3890 H   0  0  0  0  0  0  0  0  0  0  0  0
 18 19  1  0  0  0
 19  1  1  0  0  0
  1  2  1  0  0  0
  1  6  2  0  0  0
  2  3  2  0  0  0
  3  4  1  0  0  0
  4  5  2  0  0  0
  4 16  1  0  0  0
  5  6  1  0  0  0
  5  7  1  0  0  0
  7  8  1  0  0  0
  7 17  1  0  0  0
  8  9  2  0  0  0
  8 10  1  0  0  0
 10 11  1  0  0  0
 11 12  1  0  0  0
 11 16  2  0  0  0
 12 13  2  0  0  0
 13 14  1  0  0  0
 14 20  1  0  0  0
 14 15  2  0  0  0
 20 22  1  0  0  0
 20 21  1  0  0  0
 22 23  1  0  0  0
 22 28  2  0  0  0
 23 24  2  0  0  0
 24 25  1  0  0  0
 25 26  1  0  0  0
 25 27  2  0  0  0
 26 29  1  0  0  0
 27 28  1  0  0  0
 15 16  1  0  0  0
M  END
> <minimizedAffinity>
-9.42945

$$$$
