CHEMBL1762521


 34 38  0  0  0  0  0  0  0  0999 V2000
  -18.0029    1.1679  -15.3071 C   0  0  0  0  0  0  0  0  0  0  0  0
  -17.3368    2.2825  -15.8303 C   0  0  0  0  0  0  0  0  0  0  0  0
  -15.9839    2.5312  -15.5843 C   0  0  0  0  0  0  0  0  0  0  0  0
  -15.2960    1.5869  -14.8079 C   0  0  0  0  0  0  0  0  0  0  0  0
  -15.9119    0.4606  -14.2377 C   0  0  0  0  0  0  0  0  0  0  0  0
  -17.2766    0.2787  -14.5100 C   0  0  0  0  0  0  0  0  0  0  0  0
  -15.3511    3.6658  -16.0467 N   0  0  0  0  0  0  0  0  0  0  0  0
  -15.8267    4.4171  -17.2155 C   0  0  0  0  0  0  0  0  0  0  0  0
  -14.7315    4.4707  -18.2860 C   0  0  0  0  0  0  0  0  0  0  0  0
  -13.5029    5.0005  -17.7557 O   0  0  0  0  0  0  0  0  0  0  0  0
  -13.0326    4.1733  -16.6762 C   0  0  0  0  0  0  0  0  0  0  0  0
  -14.0497    4.0973  -15.5236 C   0  0  0  0  0  0  0  0  0  0  0  0
  -15.2154   -0.4087  -13.4241 N   0  0  0  0  0  0  0  0  0  0  0  0
  -13.8096   -0.7495  -13.6756 C   0  0  0  0  0  0  0  0  0  0  0  0
  -13.6501   -2.2791  -13.6991 C   0  0  0  0  0  0  0  0  0  0  0  0
  -14.1624   -2.8920  -12.5026 O   0  0  0  0  0  0  0  0  0  0  0  0
  -15.5591   -2.5929  -12.3489 C   0  0  0  0  0  0  0  0  0  0  0  0
  -15.8002   -1.0777  -12.2532 C   0  0  0  0  0  0  0  0  0  0  0  0
  -19.3440    0.8892  -15.6149 N   0  0  0  0  0  0  0  0  0  0  0  0
  -19.5256    0.1308  -16.2526 H   0  0  0  0  0  0  0  0  0  0  0  0
  -22.3674    0.6168  -13.7147 C   0  0  0  0  0  0  0  0  0  0  0  0
  -22.7567    1.9439  -13.6334 C   0  0  0  0  0  0  0  0  0  0  0  0
  -21.9362    2.8754  -14.2128 C   0  0  0  0  0  0  0  0  0  0  0  0
  -20.8021    2.5627  -14.8355 N   0  0  0  0  0  0  0  0  0  0  0  0
  -20.4840    1.2622  -14.9114 C   0  0  0  0  0  0  0  0  0  0  0  0
  -21.2366    0.2872  -14.3807 N   0  0  0  0  0  0  0  0  0  0  0  0
  -22.6825   -0.8528  -11.7718 C   0  0  0  0  0  0  0  0  0  0  0  0
  -23.1278   -0.4083  -13.0934 N   0  0  0  0  0  0  0  0  0  0  0  0
  -24.4072   -0.8286  -13.5243 C   0  0  0  0  0  0  0  0  0  0  0  0
  -24.7735   -0.8913  -14.8782 C   0  0  0  0  0  0  0  0  0  0  0  0
  -26.0489   -1.3152  -15.2698 C   0  0  0  0  0  0  0  0  0  0  0  0
  -26.9890   -1.6847  -14.3120 C   0  0  0  0  0  0  0  0  0  0  0  0
  -26.6542   -1.6289  -12.9639 C   0  0  0  0  0  0  0  0  0  0  0  0
  -25.3780   -1.2075  -12.5791 C   0  0  0  0  0  0  0  0  0  0  0  0
 27 28  1  0  0  0
 28 29  1  0  0  0
 28 21  1  0  0  0
 29 30  1  0  0  0
 29 34  2  0  0  0
 30 31  2  0  0  0
 31 32  1  0  0  0
 32 33  2  0  0  0
 33 34  1  0  0  0
 21 22  1  0  0  0
 21 26  2  0  0  0
 22 23  2  0  0  0
 23 24  1  0  0  0
 24 25  2  0  0  0
 25 19  1  0  0  0
 25 26  1  0  0  0
 19  1  1  0  0  0
 19 20  1  0  0  0
  1  2  1  0  0  0
  1  6  2  0  0  0
  2  3  2  0  0  0
  3  7  1  0  0  0
  3  4  1  0  0  0
  7  8  1  0  0  0
  7 12  1  0  0  0
  8  9  1  0  0  0
  9 10  1  0  0  0
 10 11  1  0  0  0
 11 12  1  0  0  0
  4  5  2  0  0  0
  5 13  1  0  0  0
  5  6  1  0  0  0
 13 14  1  0  0  0
 13 18  1  0  0  0
 14 15  1  0  0  0
 15 16  1  0  0  0
 16 17  1  0  0  0
 17 18  1  0  0  0
M  END
> <minimizedAffinity>
-8.74929

$$$$
