CHEMBL3947019


 37 40  0  0  0  0  0  0  0  0999 V2000
  -24.0644   11.2218  -17.5379 C   0  0  0  0  0  0  0  0  0  0  0  0
  -24.9040   10.1084  -17.4122 C   0  0  0  0  0  0  0  0  0  0  0  0
  -25.6099    9.8627  -16.2372 C   0  0  0  0  0  0  0  0  0  0  0  0
  -25.4588   10.7119  -15.1507 C   0  0  0  0  0  0  0  0  0  0  0  0
  -24.5402   11.7645  -15.2058 C   0  0  0  0  0  0  0  0  0  0  0  0
  -23.8583   12.0325  -16.4074 C   0  0  0  0  0  0  0  0  0  0  0  0
  -21.2482   11.1698  -18.1574 O   0  0  0  0  0  0  0  0  0  0  0  0
  -22.0682   11.5109  -19.0003 C   0  0  0  0  0  0  0  0  0  0  0  0
  -23.4389   11.5691  -18.7702 N   0  0  0  0  0  0  0  0  0  0  0  0
  -21.7256   11.8533  -20.3025 N   0  0  0  0  0  0  0  0  0  0  0  0
  -24.0407   11.6525  -19.5739 H   0  0  0  0  0  0  0  0  0  0  0  0
  -22.4590   12.2021  -20.8991 H   0  0  0  0  0  0  0  0  0  0  0  0
  -20.4162   11.8138  -20.8594 C   0  0  0  0  0  0  0  0  0  0  0  0
  -19.9820   12.6528  -21.8899 C   0  0  0  0  0  0  0  0  0  0  0  0
  -18.6937   12.5424  -22.4182 C   0  0  0  0  0  0  0  0  0  0  0  0
  -17.8011   11.6083  -21.9034 C   0  0  0  0  0  0  0  0  0  0  0  0
  -18.1814   10.8154  -20.8247 C   0  0  0  0  0  0  0  0  0  0  0  0
  -19.4991   10.8914  -20.3373 C   0  0  0  0  0  0  0  0  0  0  0  0
  -17.3842    9.9101  -20.1903 O   0  0  0  0  0  0  0  0  0  0  0  0
  -15.9992   10.1953  -20.0220 C   0  0  0  0  0  0  0  0  0  0  0  0
  -15.7330   11.4482  -19.5975 F   0  0  0  0  0  0  0  0  0  0  0  0
  -15.4991    9.3398  -19.1009 F   0  0  0  0  0  0  0  0  0  0  0  0
  -15.3523    9.9819  -21.1877 F   0  0  0  0  0  0  0  0  0  0  0  0
  -24.3320   12.6175  -14.1331 O   0  0  0  0  0  0  0  0  0  0  0  0
  -25.2656   12.5915  -13.0932 C   0  0  0  0  0  0  0  0  0  0  0  0
  -26.6059   12.5927  -13.4341 C   0  0  0  0  0  0  0  0  0  0  0  0
  -27.4962   12.5823  -12.3764 C   0  0  0  0  0  0  0  0  0  0  0  0
  -27.0764   12.5319  -11.1067 N   0  0  0  0  0  0  0  0  0  0  0  0
  -25.7634   12.5484  -10.8835 C   0  0  0  0  0  0  0  0  0  0  0  0
  -24.8236   12.6075  -11.8236 N   0  0  0  0  0  0  0  0  0  0  0  0
  -28.8823   12.6582  -12.6335 N   0  0  0  0  0  0  0  0  0  0  0  0
  -29.7415   11.5844  -12.5152 C   0  0  0  0  0  0  0  0  0  0  0  0
  -29.4446   10.4333  -12.2271 O   0  0  0  0  0  0  0  0  0  0  0  0
  -29.2666   13.5635  -12.8597 H   0  0  0  0  0  0  0  0  0  0  0  0
  -31.1967   11.8516  -12.7271 C   0  0  0  0  0  0  0  0  0  0  0  0
  -32.2929   10.8443  -12.9430 C   0  0  0  0  0  0  0  0  0  0  0  0
  -31.7914   11.6545  -14.1035 C   0  0  0  0  0  0  0  0  0  0  0  0
  7  8  2  0  0  0
  8  9  1  0  0  0
  8 10  1  0  0  0
  9  1  1  0  0  0
  9 11  1  0  0  0
  1  2  1  0  0  0
  1  6  2  0  0  0
  2  3  2  0  0  0
  3  4  1  0  0  0
  4  5  2  0  0  0
  5 24  1  0  0  0
  5  6  1  0  0  0
 24 25  1  0  0  0
 25 26  1  0  0  0
 25 30  2  0  0  0
 26 27  2  0  0  0
 27 31  1  0  0  0
 27 28  1  0  0  0
 31 32  1  0  0  0
 31 34  1  0  0  0
 32 33  2  0  0  0
 32 35  1  0  0  0
 35 36  1  0  0  0
 35 37  1  0  0  0
 36 37  1  0  0  0
 28 29  2  0  0  0
 29 30  1  0  0  0
 10 13  1  0  0  0
 10 12  1  0  0  0
 13 14  1  0  0  0
 13 18  2  0  0  0
 14 15  2  0  0  0
 15 16  1  0  0  0
 16 17  2  0  0  0
 17 19  1  0  0  0
 17 18  1  0  0  0
 19 20  1  0  0  0
 20 21  1  0  0  0
 20 22  1  0  0  0
 20 23  1  0  0  0
M  END
> <minimizedAffinity>
-6.14118

$$$$
