CHEMBL325003


 32 36  0  0  0  0  0  0  0  0999 V2000
  -25.5926   -1.2858  -11.8119 C   0  0  0  0  0  0  0  0  0  0  0  0
  -24.8099   -2.4044  -12.1248 C   0  0  0  0  0  0  0  0  0  0  0  0
  -23.5666   -2.2713  -12.7540 C   0  0  0  0  0  0  0  0  0  0  0  0
  -23.1297   -0.9739  -13.0364 C   0  0  0  0  0  0  0  0  0  0  0  0
  -21.9696   -0.5316  -13.6304 N   0  0  0  0  0  0  0  0  0  0  0  0
  -21.9532    0.8450  -13.7206 C   0  0  0  0  0  0  0  0  0  0  0  0
  -23.1284    1.2822  -13.1350 C   0  0  0  0  0  0  0  0  0  0  0  0
  -23.8812    0.1554  -12.7231 C   0  0  0  0  0  0  0  0  0  0  0  0
  -25.1372    0.0049  -12.1077 C   0  0  0  0  0  0  0  0  0  0  0  0
  -21.2333   -1.1279  -13.9889 H   0  0  0  0  0  0  0  0  0  0  0  0
  -20.8913    1.6016  -14.3931 C   0  0  0  0  0  0  0  0  0  0  0  0
  -19.7147    0.9557  -14.7769 C   0  0  0  0  0  0  0  0  0  0  0  0
  -18.6283    1.6834  -15.2695 C   0  0  0  0  0  0  0  0  0  0  0  0
  -17.4156    1.0481  -15.5795 C   0  0  0  0  0  0  0  0  0  0  0  0
  -16.3216    1.7948  -16.0002 C   0  0  0  0  0  0  0  0  0  0  0  0
  -16.4432    3.1746  -16.1275 C   0  0  0  0  0  0  0  0  0  0  0  0
  -17.6629    3.7996  -15.8423 C   0  0  0  0  0  0  0  0  0  0  0  0
  -18.7682    3.0790  -15.4085 C   0  0  0  0  0  0  0  0  0  0  0  0
  -19.9149    3.7199  -15.1130 N   0  0  0  0  0  0  0  0  0  0  0  0
  -20.9220    2.9746  -14.6175 C   0  0  0  0  0  0  0  0  0  0  0  0
  -22.0111    3.7315  -14.3081 O   0  0  0  0  0  0  0  0  0  0  0  0
  -21.6665    4.6084  -14.5633 H   0  0  0  0  0  0  0  0  0  0  0  0
  -27.9240   -1.5496  -11.7140 O   0  0  0  0  0  0  0  0  0  0  0  0
  -26.8690   -1.4972  -11.0873 C   0  0  0  0  0  0  0  0  0  0  0  0
  -26.8032   -1.6185   -9.7129 N   0  0  0  0  0  0  0  0  0  0  0  0
  -25.9708   -1.2949   -9.2338 H   0  0  0  0  0  0  0  0  0  0  0  0
  -28.0238   -1.7989   -8.9380 C   0  0  0  0  0  0  0  0  0  0  0  0
  -28.0527   -0.8940   -7.7125 C   0  0  0  0  0  0  0  0  0  0  0  0
  -27.5923   -1.8028   -6.5909 C   0  0  0  0  0  0  0  0  0  0  0  0
  -28.2063   -3.0992   -6.8964 N   0  0  0  0  0  0  0  0  0  0  0  0
  -28.1608   -3.2174   -8.3654 C   0  0  0  0  0  0  0  0  0  0  0  0
  -29.1871   -3.0603   -6.6120 H   0  0  0  0  0  0  0  0  0  0  0  0
 23 24  2  0  0  0
 24 25  1  0  0  0
 24  1  1  0  0  0
 25 27  1  0  0  0
 25 26  1  0  0  0
 27 28  1  0  0  0
 27 31  1  0  0  0
 28 29  1  0  0  0
 29 30  1  0  0  0
 30 31  1  0  0  0
 30 32  1  0  0  0
  1  2  1  0  0  0
  1  9  2  0  0  0
  2  3  2  0  0  0
  3  4  1  0  0  0
  4  5  1  0  0  0
  4  8  2  0  0  0
  5  6  1  0  0  0
  5 10  1  0  0  0
  6 11  1  0  0  0
  6  7  2  0  0  0
 11 12  1  0  0  0
 11 20  2  0  0  0
 12 13  2  0  0  0
 13 14  1  0  0  0
 13 18  1  0  0  0
 14 15  2  0  0  0
 15 16  1  0  0  0
 16 17  2  0  0  0
 17 18  1  0  0  0
 18 19  2  0  0  0
 19 20  1  0  0  0
 20 21  1  0  0  0
 21 22  1  0  0  0
  7  8  1  0  0  0
  8  9  1  0  0  0
M  END
> <minimizedAffinity>
-11.90427

$$$$
