CHEMBL3694650


 34 37  0  0  0  0  0  0  0  0999 V2000
  -23.0161    0.4054  -13.9959 C   0  0  0  0  0  0  0  0  0  0  0  0
  -21.8001   -0.3959  -14.1859 C   0  0  0  0  0  0  0  0  0  0  0  0
  -20.6134    0.2067  -14.3472 C   0  0  0  0  0  0  0  0  0  0  0  0
  -20.5394    1.6006  -14.3768 N   0  0  0  0  0  0  0  0  0  0  0  0
  -19.4699    2.4596  -14.6157 C   0  0  0  0  0  0  0  0  0  0  0  0
  -20.0014    3.7191  -14.3799 C   0  0  0  0  0  0  0  0  0  0  0  0
  -21.3433    3.6750  -14.1109 N   0  0  0  0  0  0  0  0  0  0  0  0
  -21.6576    2.4008  -14.1627 C   0  0  0  0  0  0  0  0  0  0  0  0
  -22.9187    1.7569  -14.0078 C   0  0  0  0  0  0  0  0  0  0  0  0
  -26.6693   -1.6216  -13.5553 C   0  0  0  0  0  0  0  0  0  0  0  0
  -26.1206   -1.0670  -12.4135 C   0  0  0  0  0  0  0  0  0  0  0  0
  -24.9227   -0.3680  -12.5314 C   0  0  0  0  0  0  0  0  0  0  0  0
  -24.3297   -0.2467  -13.7812 C   0  0  0  0  0  0  0  0  0  0  0  0
  -24.9029   -0.8107  -14.8719 N   0  0  0  0  0  0  0  0  0  0  0  0
  -26.0821   -1.5030  -14.7626 N   0  0  0  0  0  0  0  0  0  0  0  0
  -28.8559   -3.0090  -13.5201 N   0  0  0  0  0  0  0  0  0  0  0  0
  -27.8866   -2.3715  -13.5179 C   0  0  0  0  0  0  0  0  0  0  0  0
  -18.1343    2.0837  -15.0996 C   0  0  0  0  0  0  0  0  0  0  0  0
  -17.3919    2.9747  -15.8869 C   0  0  0  0  0  0  0  0  0  0  0  0
  -16.1123    2.6579  -16.3174 C   0  0  0  0  0  0  0  0  0  0  0  0
  -15.5254    1.4675  -15.9081 C   0  0  0  0  0  0  0  0  0  0  0  0
  -16.2079    0.5711  -15.0843 C   0  0  0  0  0  0  0  0  0  0  0  0
  -17.5268    0.8736  -14.7063 C   0  0  0  0  0  0  0  0  0  0  0  0
  -15.6178   -0.6275  -14.6116 N   0  0  0  0  0  0  0  0  0  0  0  0
  -15.4151   -0.9521  -13.2949 C   0  0  0  0  0  0  0  0  0  0  0  0
  -15.7406   -0.2980  -12.3080 O   0  0  0  0  0  0  0  0  0  0  0  0
  -14.7243   -2.1331  -13.1262 N   0  0  0  0  0  0  0  0  0  0  0  0
  -15.3396   -1.3076  -15.3007 H   0  0  0  0  0  0  0  0  0  0  0  0
  -14.8997   -2.8521  -13.8106 H   0  0  0  0  0  0  0  0  0  0  0  0
  -14.4604   -2.5667  -11.7482 C   0  0  0  0  0  0  0  0  0  0  0  0
  -15.6029   -3.3187  -11.0474 C   0  0  0  0  0  0  0  0  0  0  0  0
  -15.1629   -4.4230  -10.4008 F   0  0  0  0  0  0  0  0  0  0  0  0
  -16.1689   -2.5180  -10.1088 F   0  0  0  0  0  0  0  0  0  0  0  0
  -16.5804   -3.6884  -11.8998 F   0  0  0  0  0  0  0  0  0  0  0  0
 16 17  3  0  0  0
 17 10  1  0  0  0
 10 11  1  0  0  0
 10 15  2  0  0  0
 11 12  2  0  0  0
 12 13  1  0  0  0
 13  1  1  0  0  0
 13 14  2  0  0  0
  1  2  1  0  0  0
  1  9  2  0  0  0
  2  3  2  0  0  0
  3  4  1  0  0  0
  4  5  1  0  0  0
  4  8  1  0  0  0
  5 18  1  0  0  0
  5  6  2  0  0  0
 18 19  1  0  0  0
 18 23  2  0  0  0
 19 20  2  0  0  0
 20 21  1  0  0  0
 21 22  2  0  0  0
 22 24  1  0  0  0
 22 23  1  0  0  0
 24 25  1  0  0  0
 24 28  1  0  0  0
 25 26  2  0  0  0
 25 27  1  0  0  0
 27 30  1  0  0  0
 27 29  1  0  0  0
 30 31  1  0  0  0
 31 32  1  0  0  0
 31 33  1  0  0  0
 31 34  1  0  0  0
  6  7  1  0  0  0
  7  8  2  0  0  0
  8  9  1  0  0  0
 14 15  1  0  0  0
M  END
> <minimizedAffinity>
-9.19584

$$$$
