CHEMBL245948


 35 38  0  0  0  0  0  0  0  0999 V2000
  -29.4100   -3.6970   -7.0436 C   0  0  0  0  0  0  0  0  0  0  0  0
  -28.9554   -2.8353   -6.0401 C   0  0  0  0  0  0  0  0  0  0  0  0
  -28.0943   -1.7929   -6.3486 C   0  0  0  0  0  0  0  0  0  0  0  0
  -27.6047   -1.6644   -7.6447 C   0  0  0  0  0  0  0  0  0  0  0  0
  -27.9301   -2.5945   -8.6382 C   0  0  0  0  0  0  0  0  0  0  0  0
  -28.8702   -3.5978   -8.3384 C   0  0  0  0  0  0  0  0  0  0  0  0
  -27.3311   -2.5575   -9.9281 N   0  0  0  0  0  0  0  0  0  0  0  0
  -27.6078   -1.5991  -10.9005 C   0  0  0  0  0  0  0  0  0  0  0  0
  -28.3854   -0.6579  -10.7766 O   0  0  0  0  0  0  0  0  0  0  0  0
  -26.5403   -3.1690  -10.0772 H   0  0  0  0  0  0  0  0  0  0  0  0
  -26.8741   -1.6829  -12.1930 C   0  0  0  0  0  0  0  0  0  0  0  0
  -27.5053   -1.8168  -13.4302 C   0  0  0  0  0  0  0  0  0  0  0  0
  -26.7377   -1.7896  -14.6002 C   0  0  0  0  0  0  0  0  0  0  0  0
  -25.3482   -1.6167  -14.5416 C   0  0  0  0  0  0  0  0  0  0  0  0
  -24.6965   -1.4724  -13.3108 C   0  0  0  0  0  0  0  0  0  0  0  0
  -25.4770   -1.5146  -12.1456 C   0  0  0  0  0  0  0  0  0  0  0  0
  -23.2040   -1.2127  -13.1926 C   0  0  0  0  0  0  0  0  0  0  0  0
  -22.7468    0.0000  -14.0049 C   0  0  0  0  0  0  0  0  0  0  0  0
  -22.7787   -1.0794  -11.7283 C   0  0  0  0  0  0  0  0  0  0  0  0
  -30.3501   -4.6878   -6.7914 O   0  0  0  0  0  0  0  0  0  0  0  0
  -29.7977   -6.8349   -5.8063 C   0  0  0  0  0  0  0  0  0  0  0  0
  -29.4872   -7.5127   -4.6021 C   0  0  0  0  0  0  0  0  0  0  0  0
  -29.5333   -6.8766   -3.3656 C   0  0  0  0  0  0  0  0  0  0  0  0
  -29.9328   -5.5620   -3.3395 C   0  0  0  0  0  0  0  0  0  0  0  0
  -30.2615   -4.8721   -4.4460 N   0  0  0  0  0  0  0  0  0  0  0  0
  -30.1455   -5.4869   -5.6615 C   0  0  0  0  0  0  0  0  0  0  0  0
  -28.4634   -8.2514   -8.8295 C   0  0  0  0  0  0  0  0  0  0  0  0
  -29.3786   -9.1298   -9.2134 N   0  0  0  0  0  0  0  0  0  0  0  0
  -30.4710   -9.1699   -8.4547 C   0  0  0  0  0  0  0  0  0  0  0  0
  -30.7139   -8.4317   -7.3756 N   0  0  0  0  0  0  0  0  0  0  0  0
  -29.7402   -7.5777   -7.0768 C   0  0  0  0  0  0  0  0  0  0  0  0
  -28.6079   -7.4480   -7.7863 N   0  0  0  0  0  0  0  0  0  0  0  0
  -26.8481   -9.2950  -10.2800 C   0  0  0  0  0  0  0  0  0  0  0  0
  -27.2464   -8.1561   -9.4876 N   0  0  0  0  0  0  0  0  0  0  0  0
  -27.2117   -7.2552   -9.9485 H   0  0  0  0  0  0  0  0  0  0  0  0
 33 34  1  0  0  0
 34 27  1  0  0  0
 34 35  1  0  0  0
 27 28  1  0  0  0
 27 32  2  0  0  0
 28 29  2  0  0  0
 29 30  1  0  0  0
 30 31  2  0  0  0
 31 21  1  0  0  0
 31 32  1  0  0  0
 21 22  1  0  0  0
 21 26  2  0  0  0
 22 23  2  0  0  0
 23 24  1  0  0  0
 24 25  2  0  0  0
 25 26  1  0  0  0
 26 20  1  0  0  0
 20  1  1  0  0  0
  1  2  1  0  0  0
  1  6  2  0  0  0
  2  3  2  0  0  0
  3  4  1  0  0  0
  4  5  2  0  0  0
  5  7  1  0  0  0
  5  6  1  0  0  0
  7  8  1  0  0  0
  7 10  1  0  0  0
  8  9  2  0  0  0
  8 11  1  0  0  0
 11 12  1  0  0  0
 11 16  2  0  0  0
 12 13  2  0  0  0
 13 14  1  0  0  0
 14 15  2  0  0  0
 15 17  1  0  0  0
 15 16  1  0  0  0
 17 18  1  0  0  0
 17 19  1  0  0  0
M  END
> <minimizedAffinity>
-10.58831

$$$$
