CHEMBL425672


 39 43  0  0  0  0  0  0  0  0999 V2000
  -19.6413    2.2939  -15.5123 C   0  0  0  0  0  0  0  0  0  0  0  0
  -20.4080    3.4139  -15.1526 C   0  0  0  0  0  0  0  0  0  0  0  0
  -21.5741    3.2932  -14.3749 C   0  0  0  0  0  0  0  0  0  0  0  0
  -21.9003    2.0017  -13.9752 C   0  0  0  0  0  0  0  0  0  0  0  0
  -22.9170    1.5892  -13.1548 O   0  0  0  0  0  0  0  0  0  0  0  0
  -22.7196    0.2328  -13.0329 C   0  0  0  0  0  0  0  0  0  0  0  0
  -21.7420   -0.2328  -13.7818 N   0  0  0  0  0  0  0  0  0  0  0  0
  -21.1908    0.8747  -14.3517 C   0  0  0  0  0  0  0  0  0  0  0  0
  -20.0678    1.0022  -15.1731 C   0  0  0  0  0  0  0  0  0  0  0  0
  -23.5157   -0.4139  -12.1532 N   0  0  0  0  0  0  0  0  0  0  0  0
  -23.0682   -0.8005  -11.3332 H   0  0  0  0  0  0  0  0  0  0  0  0
  -24.7914   -0.9567  -12.4363 C   0  0  0  0  0  0  0  0  0  0  0  0
  -25.1278   -1.4842  -13.6855 C   0  0  0  0  0  0  0  0  0  0  0  0
  -26.4063   -1.9669  -13.9497 C   0  0  0  0  0  0  0  0  0  0  0  0
  -27.4102   -1.9296  -12.9725 C   0  0  0  0  0  0  0  0  0  0  0  0
  -28.9218   -2.5719  -13.5184 Cl  0  0  0  0  0  0  0  0  0  0  0  0
  -27.1232   -1.4014  -11.7026 C   0  0  0  0  0  0  0  0  0  0  0  0
  -25.8132   -0.9117  -11.4652 C   0  0  0  0  0  0  0  0  0  0  0  0
  -27.9355   -1.2745  -10.5941 O   0  0  0  0  0  0  0  0  0  0  0  0
  -27.6121   -2.0120   -9.4215 C   0  0  0  0  0  0  0  0  0  0  0  0
  -28.7265   -2.0539   -8.3561 C   0  0  0  0  0  0  0  0  0  0  0  0
  -28.3925   -1.2554   -7.0894 C   0  0  0  0  0  0  0  0  0  0  0  0
  -27.5622   -2.0406   -6.0782 C   0  0  0  0  0  0  0  0  0  0  0  0
  -28.1909   -3.3191   -5.7423 N   0  0  0  0  0  0  0  0  0  0  0  0
  -28.3235   -4.1506   -6.9394 C   0  0  0  0  0  0  0  0  0  0  0  0
  -29.1856   -3.4757   -8.0016 C   0  0  0  0  0  0  0  0  0  0  0  0
  -29.1170   -3.1428   -5.3549 H   0  0  0  0  0  0  0  0  0  0  0  0
  -18.4861    2.5353  -16.2337 O   0  0  0  0  0  0  0  0  0  0  0  0
  -15.8335    0.8656  -14.3073 C   0  0  0  0  0  0  0  0  0  0  0  0
  -17.1169    1.1582  -14.7456 C   0  0  0  0  0  0  0  0  0  0  0  0
  -17.2708    2.1690  -15.6907 C   0  0  0  0  0  0  0  0  0  0  0  0
  -16.1575    2.8996  -16.0980 C   0  0  0  0  0  0  0  0  0  0  0  0
  -14.9175    2.5512  -15.5837 C   0  0  0  0  0  0  0  0  0  0  0  0
  -14.7203    1.5447  -14.7037 N   0  0  0  0  0  0  0  0  0  0  0  0
  -15.6871   -2.7213  -13.1090 C   0  0  0  0  0  0  0  0  0  0  0  0
  -15.8431   -1.5282  -13.8956 N   0  0  0  0  0  0  0  0  0  0  0  0
  -15.6299   -0.2769  -13.3583 C   0  0  0  0  0  0  0  0  0  0  0  0
  -15.3006   -0.0858  -12.1926 O   0  0  0  0  0  0  0  0  0  0  0  0
  -16.1179   -1.5720  -14.8731 H   0  0  0  0  0  0  0  0  0  0  0  0
 35 36  1  0  0  0
 36 37  1  0  0  0
 36 39  1  0  0  0
 37 38  2  0  0  0
 37 29  1  0  0  0
 29 30  1  0  0  0
 29 34  2  0  0  0
 30 31  2  0  0  0
 31 28  1  0  0  0
 31 32  1  0  0  0
 28  1  1  0  0  0
  1  2  1  0  0  0
  1  9  2  0  0  0
  2  3  2  0  0  0
  3  4  1  0  0  0
  4  5  1  0  0  0
  4  8  2  0  0  0
  5  6  1  0  0  0
  6 10  1  0  0  0
  6  7  2  0  0  0
 10 12  1  0  0  0
 10 11  1  0  0  0
 12 13  1  0  0  0
 12 18  2  0  0  0
 13 14  2  0  0  0
 14 15  1  0  0  0
 15 16  1  0  0  0
 15 17  2  0  0  0
 17 19  1  0  0  0
 17 18  1  0  0  0
 19 20  1  0  0  0
 20 21  1  0  0  0
 21 22  1  0  0  0
 21 26  1  0  0  0
 22 23  1  0  0  0
 23 24  1  0  0  0
 24 25  1  0  0  0
 24 27  1  0  0  0
 25 26  1  0  0  0
  7  8  1  0  0  0
  8  9  1  0  0  0
 32 33  2  0  0  0
 33 34  1  0  0  0
M  END
> <minimizedAffinity>
-10.04975

$$$$
