CHEMBL406804


 47 53  0  0  0  0  0  0  0  0999 V2000
  -27.7432   -2.0008   -9.3458 C   0  0  0  0  0  0  0  0  0  0  0  0
  -27.9422   -1.1178   -8.3488 N   0  0  0  0  0  0  0  0  0  0  0  0
  -28.0888   -1.6076   -7.1243 C   0  0  0  0  0  0  0  0  0  0  0  0
  -28.0605   -2.9549   -6.8835 C   0  0  0  0  0  0  0  0  0  0  0  0
  -28.4110   -3.3915   -5.5453 C   0  0  0  0  0  0  0  0  0  0  0  0
  -27.7501   -2.9828   -4.6105 O   0  0  0  0  0  0  0  0  0  0  0  0
  -29.5198   -4.2006   -5.5182 N   0  0  0  0  0  0  0  0  0  0  0  0
  -30.0311   -4.5793   -6.7704 C   0  0  0  0  0  0  0  0  0  0  0  0
  -31.1429   -5.1908   -7.0931 N   0  0  0  0  0  0  0  0  0  0  0  0
  -30.6277   -6.4144   -7.3491 C   0  0  0  0  0  0  0  0  0  0  0  0
  -31.2695   -7.5911   -6.9451 C   0  0  0  0  0  0  0  0  0  0  0  0
  -30.4530   -8.6145   -6.4956 C   0  0  0  0  0  0  0  0  0  0  0  0
  -29.0682   -8.5383   -6.6900 C   0  0  0  0  0  0  0  0  0  0  0  0
  -28.4277   -7.4496   -7.3619 C   0  0  0  0  0  0  0  0  0  0  0  0
  -29.2354   -6.3201   -7.6359 C   0  0  0  0  0  0  0  0  0  0  0  0
  -29.0978   -4.9001   -7.7549 N   0  0  0  0  0  0  0  0  0  0  0  0
  -28.0907   -3.8497   -7.9601 C   0  0  0  0  0  0  0  0  0  0  0  0
  -27.8560   -3.3653   -9.2188 N   0  0  0  0  0  0  0  0  0  0  0  0
  -29.6916   -5.1497   -4.4746 C   0  0  0  0  0  0  0  0  0  0  0  0
  -30.9337   -5.1404   -3.8195 C   0  0  0  0  0  0  0  0  0  0  0  0
  -31.9528   -4.0661   -4.0844 C   0  0  0  0  0  0  0  0  0  0  0  0
  -31.2015   -6.1226   -2.8641 C   0  0  0  0  0  0  0  0  0  0  0  0
  -30.2625   -7.1057   -2.5585 C   0  0  0  0  0  0  0  0  0  0  0  0
  -29.0229   -7.1143   -3.1887 C   0  0  0  0  0  0  0  0  0  0  0  0
  -28.7091   -6.1448   -4.1564 C   0  0  0  0  0  0  0  0  0  0  0  0
  -27.3296   -6.2489   -4.7667 C   0  0  0  0  0  0  0  0  0  0  0  0
  -27.5300   -1.3296  -10.5513 N   0  0  0  0  0  0  0  0  0  0  0  0
  -27.5975   -0.3493  -10.2470 H   0  0  0  0  0  0  0  0  0  0  0  0
  -25.5815   -1.4623  -13.6993 C   0  0  0  0  0  0  0  0  0  0  0  0
  -26.6326   -1.4288  -12.7705 C   0  0  0  0  0  0  0  0  0  0  0  0
  -26.3981   -1.4053  -11.3927 C   0  0  0  0  0  0  0  0  0  0  0  0
  -25.0778   -1.3323  -10.9435 C   0  0  0  0  0  0  0  0  0  0  0  0
  -24.0043   -1.3257  -11.8556 C   0  0  0  0  0  0  0  0  0  0  0  0
  -24.2536   -1.3587  -13.2472 C   0  0  0  0  0  0  0  0  0  0  0  0
  -27.1622   -1.1257  -15.4351 C   0  0  0  0  0  0  0  0  0  0  0  0
  -25.8477   -1.5219  -15.0435 O   0  0  0  0  0  0  0  0  0  0  0  0
  -22.6896   -1.2556  -11.4753 O   0  0  0  0  0  0  0  0  0  0  0  0
  -22.1079    0.0302  -11.3038 C   0  0  0  0  0  0  0  0  0  0  0  0
  -23.1304   -1.3006  -14.0513 O   0  0  0  0  0  0  0  0  0  0  0  0
  -22.8708   -0.0398  -14.6750 C   0  0  0  0  0  0  0  0  0  0  0  0
  -21.5213    0.5661  -14.2204 C   0  0  0  0  0  0  0  0  0  0  0  0
  -20.7521    1.1870  -15.3299 N   0  0  0  0  0  0  0  0  0  0  0  0
  -19.3167    0.8186  -15.2915 C   0  0  0  0  0  0  0  0  0  0  0  0
  -18.5036    1.5289  -14.1894 C   0  0  0  0  0  0  0  0  0  0  0  0
  -18.6752    2.9532  -14.2139 O   0  0  0  0  0  0  0  0  0  0  0  0
  -20.0631    3.3052  -14.1655 C   0  0  0  0  0  0  0  0  0  0  0  0
  -20.8161    2.6667  -15.3403 C   0  0  0  0  0  0  0  0  0  0  0  0
 35 36  1  0  0  0
 36 29  1  0  0  0
 29 30  1  0  0  0
 29 34  2  0  0  0
 30 31  2  0  0  0
 31 27  1  0  0  0
 31 32  1  0  0  0
 27  1  1  0  0  0
 27 28  1  0  0  0
  1  2  1  0  0  0
  1 18  2  0  0  0
  2  3  2  0  0  0
  3  4  1  0  0  0
  4  5  1  0  0  0
  4 17  2  0  0  0
  5  6  2  0  0  0
  5  7  1  0  0  0
  7 19  1  0  0  0
  7  8  1  0  0  0
 19 20  1  0  0  0
 19 25  2  0  0  0
 20 21  1  0  0  0
 20 22  2  0  0  0
 22 23  1  0  0  0
 23 24  2  0  0  0
 24 25  1  0  0  0
 25 26  1  0  0  0
  8  9  2  0  0  0
  8 16  1  0  0  0
  9 10  1  0  0  0
 10 11  1  0  0  0
 10 15  2  0  0  0
 11 12  2  0  0  0
 12 13  1  0  0  0
 13 14  2  0  0  0
 14 15  1  0  0  0
 15 16  1  0  0  0
 16 17  1  0  0  0
 17 18  1  0  0  0
 32 33  2  0  0  0
 33 37  1  0  0  0
 33 34  1  0  0  0
 37 38  1  0  0  0
 34 39  1  0  0  0
 39 40  1  0  0  0
 40 41  1  0  0  0
 41 42  1  0  0  0
 42 43  1  0  0  0
 42 47  1  0  0  0
 43 44  1  0  0  0
 44 45  1  0  0  0
 45 46  1  0  0  0
 46 47  1  0  0  0
M  END
> <minimizedAffinity>
-6.27186

$$$$
