CHEMBL1794074


 33 36  0  0  0  0  0  0  0  0999 V2000
  -30.3967   -5.9038   -4.8316 C   0  0  0  0  0  0  0  0  0  0  0  0
  -31.5952   -5.6554   -4.1210 C   0  0  0  0  0  0  0  0  0  0  0  0
  -31.7184   -4.4684   -3.4026 C   0  0  0  0  0  0  0  0  0  0  0  0
  -30.6877   -3.5913   -3.3642 N   0  0  0  0  0  0  0  0  0  0  0  0
  -29.5408   -3.8304   -4.0487 C   0  0  0  0  0  0  0  0  0  0  0  0
  -29.4183   -4.9674   -4.7714 N   0  0  0  0  0  0  0  0  0  0  0  0
  -30.1808   -7.1443   -5.5466 N   0  0  0  0  0  0  0  0  0  0  0  0
  -31.1396   -7.4432   -6.6146 C   0  0  0  0  0  0  0  0  0  0  0  0
  -25.4532  -11.3422   -3.0535 C   0  0  0  0  0  0  0  0  0  0  0  0
  -26.0370  -10.7324   -4.2977 C   0  0  0  0  0  0  0  0  0  0  0  0
  -27.0925   -9.8557   -4.3575 C   0  0  0  0  0  0  0  0  0  0  0  0
  -27.8733   -9.2810   -3.3761 C   0  0  0  0  0  0  0  0  0  0  0  0
  -28.8680   -8.3861   -3.7743 C   0  0  0  0  0  0  0  0  0  0  0  0
  -29.1306   -8.0840   -5.1569 C   0  0  0  0  0  0  0  0  0  0  0  0
  -28.2778   -8.7175   -6.1211 C   0  0  0  0  0  0  0  0  0  0  0  0
  -27.2766   -9.5779   -5.6760 C   0  0  0  0  0  0  0  0  0  0  0  0
  -26.3629  -10.2289   -6.4173 N   0  0  0  0  0  0  0  0  0  0  0  0
  -25.6032  -10.9199   -5.5716 N   0  0  0  0  0  0  0  0  0  0  0  0
  -24.4521  -11.7046   -6.0013 C   0  0  0  0  0  0  0  0  0  0  0  0
  -28.4794   -2.8883   -4.0062 N   0  0  0  0  0  0  0  0  0  0  0  0
  -27.8619   -2.8605   -3.1803 H   0  0  0  0  0  0  0  0  0  0  0  0
  -28.3110   -1.9263   -5.0378 C   0  0  0  0  0  0  0  0  0  0  0  0
  -28.5638   -0.5680   -4.7999 C   0  0  0  0  0  0  0  0  0  0  0  0
  -28.4163    0.3622   -5.8367 C   0  0  0  0  0  0  0  0  0  0  0  0
  -28.0522   -0.0626   -7.1202 C   0  0  0  0  0  0  0  0  0  0  0  0
  -27.8301   -1.4210   -7.3688 C   0  0  0  0  0  0  0  0  0  0  0  0
  -27.9450   -2.3388   -6.3319 C   0  0  0  0  0  0  0  0  0  0  0  0
  -27.4278   -2.0248   -9.0059 S   0  0  0  0  0  0  0  0  0  0  0  0
  -27.3494   -3.7727   -9.2237 N   0  0  0  0  0  0  0  0  0  0  0  0
  -28.4335   -1.5442  -10.0644 O   0  0  0  0  0  0  0  0  0  0  0  0
  -26.1025   -1.4840   -9.5603 O   0  0  0  0  0  0  0  0  0  0  0  0
  -28.2792   -4.1680   -8.9570 H   0  0  0  0  0  0  0  0  0  0  0  0
  -26.6375   -4.1390   -8.5530 H   0  0  0  0  0  0  0  0  0  0  0  0
  9 10  1  0  0  0
 10 11  2  0  0  0
 10 18  1  0  0  0
 11 12  1  0  0  0
 11 16  1  0  0  0
 12 13  2  0  0  0
 13 14  1  0  0  0
 14  7  1  0  0  0
 14 15  2  0  0  0
  7  8  1  0  0  0
  7  1  1  0  0  0
  1  2  1  0  0  0
  1  6  2  0  0  0
  2  3  2  0  0  0
  3  4  1  0  0  0
  4  5  2  0  0  0
  5 20  1  0  0  0
  5  6  1  0  0  0
 20 22  1  0  0  0
 20 21  1  0  0  0
 22 23  1  0  0  0
 22 27  2  0  0  0
 23 24  2  0  0  0
 24 25  1  0  0  0
 25 26  2  0  0  0
 26 28  1  0  0  0
 26 27  1  0  0  0
 28 29  1  0  0  0
 28 30  2  0  0  0
 28 31  2  0  0  0
 29 32  1  0  0  0
 29 33  1  0  0  0
 15 16  1  0  0  0
 16 17  2  0  0  0
 17 18  1  0  0  0
 18 19  1  0  0  0
M  END
> <minimizedAffinity>
-8.93887

$$$$
