CHEMBL499067


 33 37  0  0  0  0  0  0  0  0999 V2000
  -15.2549    4.7527  -15.9513 N   0  0  0  0  0  0  0  0  0  0  0  0
  -16.1372    3.6989  -15.8284 C   0  0  0  0  0  0  0  0  0  0  0  0
  -15.5888    2.4830  -15.7117 N   0  0  0  0  0  0  0  0  0  0  0  0
  -16.3745    1.3999  -15.4711 C   0  0  0  0  0  0  0  0  0  0  0  0
  -17.7580    1.6119  -15.3766 C   0  0  0  0  0  0  0  0  0  0  0  0
  -18.9126    0.8286  -15.0962 C   0  0  0  0  0  0  0  0  0  0  0  0
  -20.0087    1.6763  -15.0550 C   0  0  0  0  0  0  0  0  0  0  0  0
  -19.5591    2.9218  -15.4392 N   0  0  0  0  0  0  0  0  0  0  0  0
  -18.1976    2.9064  -15.5802 C   0  0  0  0  0  0  0  0  0  0  0  0
  -17.4437    3.9849  -15.8282 N   0  0  0  0  0  0  0  0  0  0  0  0
  -14.3506    4.4112  -16.2446 H   0  0  0  0  0  0  0  0  0  0  0  0
  -15.6693    5.5211  -16.4546 H   0  0  0  0  0  0  0  0  0  0  0  0
  -20.1080    3.7639  -15.5276 H   0  0  0  0  0  0  0  0  0  0  0  0
  -15.8002    0.1446  -15.2422 N   0  0  0  0  0  0  0  0  0  0  0  0
  -15.1496   -0.1632  -15.9500 H   0  0  0  0  0  0  0  0  0  0  0  0
  -15.8010   -0.6251  -14.0664 C   0  0  0  0  0  0  0  0  0  0  0  0
  -15.8477   -0.0388  -12.7967 C   0  0  0  0  0  0  0  0  0  0  0  0
  -15.8641   -0.8012  -11.6240 C   0  0  0  0  0  0  0  0  0  0  0  0
  -15.8792   -2.1892  -11.7632 C   0  0  0  0  0  0  0  0  0  0  0  0
  -15.9188   -3.1755  -10.8055 N   0  0  0  0  0  0  0  0  0  0  0  0
  -15.9609   -4.4109  -11.4007 C   0  0  0  0  0  0  0  0  0  0  0  0
  -15.9247   -4.2211  -12.7619 C   0  0  0  0  0  0  0  0  0  0  0  0
  -15.8670   -2.8218  -13.0045 C   0  0  0  0  0  0  0  0  0  0  0  0
  -15.8186   -2.0254  -14.1693 C   0  0  0  0  0  0  0  0  0  0  0  0
  -15.9335   -3.0051   -9.8085 H   0  0  0  0  0  0  0  0  0  0  0  0
  -21.4088    1.3963  -14.5910 C   0  0  0  0  0  0  0  0  0  0  0  0
  -21.5096    0.6738  -13.2466 C   0  0  0  0  0  0  0  0  0  0  0  0
  -22.7087   -0.2429  -13.1752 C   0  0  0  0  0  0  0  0  0  0  0  0
  -23.6068   -0.3202  -14.2499 C   0  0  0  0  0  0  0  0  0  0  0  0
  -24.6996   -1.1895  -14.1990 C   0  0  0  0  0  0  0  0  0  0  0  0
  -24.9089   -1.9847  -13.0755 C   0  0  0  0  0  0  0  0  0  0  0  0
  -24.0335   -1.9009  -11.9933 C   0  0  0  0  0  0  0  0  0  0  0  0
  -22.9389   -1.0315  -12.0416 C   0  0  0  0  0  0  0  0  0  0  0  0
  1  2  1  0  0  0
  1 11  1  0  0  0
  1 12  1  0  0  0
  2  3  1  0  0  0
  2 10  2  0  0  0
  3  4  2  0  0  0
  4 14  1  0  0  0
  4  5  1  0  0  0
 14 16  1  0  0  0
 14 15  1  0  0  0
 16 17  1  0  0  0
 16 24  2  0  0  0
 17 18  2  0  0  0
 18 19  1  0  0  0
 19 20  1  0  0  0
 19 23  2  0  0  0
 20 21  1  0  0  0
 20 25  1  0  0  0
 21 22  2  0  0  0
 22 23  1  0  0  0
 23 24  1  0  0  0
  5  6  1  0  0  0
  5  9  2  0  0  0
  6  7  2  0  0  0
  7 26  1  0  0  0
  7  8  1  0  0  0
 26 27  1  0  0  0
 27 28  1  0  0  0
 28 29  1  0  0  0
 28 33  2  0  0  0
 29 30  2  0  0  0
 30 31  1  0  0  0
 31 32  2  0  0  0
 32 33  1  0  0  0
  8  9  1  0  0  0
  8 13  1  0  0  0
  9 10  1  0  0  0
M  END
> <minimizedAffinity>
-9.80486

$$$$
