CHEMBL404669


 33 36  0  0  0  0  0  0  0  0999 V2000
  -30.2015   -6.7891   -5.4389 C   0  0  0  0  0  0  0  0  0  0  0  0
  -29.2168   -7.7117   -5.0853 C   0  0  0  0  0  0  0  0  0  0  0  0
  -28.9329   -8.7983   -5.9144 C   0  0  0  0  0  0  0  0  0  0  0  0
  -29.6483   -9.0173   -7.1036 C   0  0  0  0  0  0  0  0  0  0  0  0
  -30.7397   -8.1661   -7.3513 C   0  0  0  0  0  0  0  0  0  0  0  0
  -31.0089   -7.0517   -6.5404 C   0  0  0  0  0  0  0  0  0  0  0  0
  -29.2399  -10.0891   -8.0308 C   0  0  0  0  0  0  0  0  0  0  0  0
  -29.7386  -11.3977   -7.9132 C   0  0  0  0  0  0  0  0  0  0  0  0
  -29.4031  -12.4660   -8.6771 N   0  0  0  0  0  0  0  0  0  0  0  0
  -28.5118  -12.2907   -9.6684 C   0  0  0  0  0  0  0  0  0  0  0  0
  -27.9697  -11.0320   -9.8628 C   0  0  0  0  0  0  0  0  0  0  0  0
  -27.0658  -10.5932  -10.7871 N   0  0  0  0  0  0  0  0  0  0  0  0
  -26.7361   -9.3054  -10.6614 N   0  0  0  0  0  0  0  0  0  0  0  0
  -27.4432   -8.8977   -9.6117 C   0  0  0  0  0  0  0  0  0  0  0  0
  -27.3088   -7.6437   -9.1517 N   0  0  0  0  0  0  0  0  0  0  0  0
  -28.2861   -9.9238   -9.0713 C   0  0  0  0  0  0  0  0  0  0  0  0
  -26.6267  -11.1284  -11.5273 H   0  0  0  0  0  0  0  0  0  0  0  0
  -26.5415   -7.1228   -9.5636 H   0  0  0  0  0  0  0  0  0  0  0  0
  -27.3891   -7.4841   -8.1530 H   0  0  0  0  0  0  0  0  0  0  0  0
  -29.8483   -3.3311   -4.4097 N   0  0  0  0  0  0  0  0  0  0  0  0
  -29.5911   -4.4580   -5.1689 C   0  0  0  0  0  0  0  0  0  0  0  0
  -28.8281   -4.4957   -6.1270 O   0  0  0  0  0  0  0  0  0  0  0  0
  -30.3336   -5.5581   -4.7491 N   0  0  0  0  0  0  0  0  0  0  0  0
  -30.2975   -3.4791   -3.5183 H   0  0  0  0  0  0  0  0  0  0  0  0
  -31.2544   -5.3362   -4.3985 H   0  0  0  0  0  0  0  0  0  0  0  0
  -30.5574    1.3555   -5.9844 C   0  0  0  0  0  0  0  0  0  0  0  0
  -29.6647    0.2812   -5.4423 C   0  0  0  0  0  0  0  0  0  0  0  0
  -30.1759   -0.9939   -5.1720 C   0  0  0  0  0  0  0  0  0  0  0  0
  -29.3611   -2.0305   -4.6807 C   0  0  0  0  0  0  0  0  0  0  0  0
  -28.0114   -1.7607   -4.4453 C   0  0  0  0  0  0  0  0  0  0  0  0
  -27.4890   -0.4846   -4.6999 C   0  0  0  0  0  0  0  0  0  0  0  0
  -28.3171    0.5156   -5.1955 C   0  0  0  0  0  0  0  0  0  0  0  0
  -27.7973    1.7306   -5.4368 F   0  0  0  0  0  0  0  0  0  0  0  0
 26 27  1  0  0  0
 27 28  1  0  0  0
 27 32  2  0  0  0
 28 29  2  0  0  0
 29 20  1  0  0  0
 29 30  1  0  0  0
 20 21  1  0  0  0
 20 24  1  0  0  0
 21 22  2  0  0  0
 21 23  1  0  0  0
 23  1  1  0  0  0
 23 25  1  0  0  0
  1  2  1  0  0  0
  1  6  2  0  0  0
  2  3  2  0  0  0
  3  4  1  0  0  0
  4  7  1  0  0  0
  4  5  2  0  0  0
  7  8  1  0  0  0
  7 16  2  0  0  0
  8  9  2  0  0  0
  9 10  1  0  0  0
 10 11  2  0  0  0
 11 12  1  0  0  0
 11 16  1  0  0  0
 12 13  1  0  0  0
 12 17  1  0  0  0
 13 14  2  0  0  0
 14 15  1  0  0  0
 14 16  1  0  0  0
 15 18  1  0  0  0
 15 19  1  0  0  0
  5  6  1  0  0  0
 30 31  2  0  0  0
 31 32  1  0  0  0
 32 33  1  0  0  0
M  END
> <minimizedAffinity>
-9.50484

$$$$
