CHEMBL3633769


 34 36  0  0  0  0  0  0  0  0999 V2000
  -25.2534  -11.6182   -6.9881 C   0  0  0  0  0  0  0  0  0  0  0  0
  -25.2984  -11.4266   -8.3731 C   0  0  0  0  0  0  0  0  0  0  0  0
  -26.3913  -10.8594   -9.0084 C   0  0  0  0  0  0  0  0  0  0  0  0
  -26.3582  -10.7745  -10.3404 N   0  0  0  0  0  0  0  0  0  0  0  0
  -27.4264  -10.2377  -10.9321 C   0  0  0  0  0  0  0  0  0  0  0  0
  -28.4998   -9.7517  -10.3107 N   0  0  0  0  0  0  0  0  0  0  0  0
  -28.5159   -9.8217   -8.9639 C   0  0  0  0  0  0  0  0  0  0  0  0
  -27.4692  -10.4128   -8.2368 C   0  0  0  0  0  0  0  0  0  0  0  0
  -27.4344  -10.5834   -6.8311 C   0  0  0  0  0  0  0  0  0  0  0  0
  -26.3217  -11.1513   -6.2055 C   0  0  0  0  0  0  0  0  0  0  0  0
  -22.9332  -11.6441   -6.3508 C   0  0  0  0  0  0  0  0  0  0  0  0
  -24.2202  -12.2514   -6.3561 O   0  0  0  0  0  0  0  0  0  0  0  0
  -29.6194   -9.2452   -8.2738 N   0  0  0  0  0  0  0  0  0  0  0  0
  -29.8321   -9.8271   -7.4628 H   0  0  0  0  0  0  0  0  0  0  0  0
  -29.6879   -7.8695   -7.9339 C   0  0  0  0  0  0  0  0  0  0  0  0
  -28.5641   -7.0503   -8.1294 C   0  0  0  0  0  0  0  0  0  0  0  0
  -28.5730   -5.7154   -7.7304 C   0  0  0  0  0  0  0  0  0  0  0  0
  -29.7188   -5.1785   -7.1502 C   0  0  0  0  0  0  0  0  0  0  0  0
  -29.7108   -3.5434   -6.6157 Cl  0  0  0  0  0  0  0  0  0  0  0  0
  -30.8664   -5.9563   -6.9885 C   0  0  0  0  0  0  0  0  0  0  0  0
  -30.8485   -7.2925   -7.3867 C   0  0  0  0  0  0  0  0  0  0  0  0
  -32.2762   -8.2426   -7.1556 Cl  0  0  0  0  0  0  0  0  0  0  0  0
  -26.4156  -11.2320   -4.8340 O   0  0  0  0  0  0  0  0  0  0  0  0
  -25.5257  -10.3460   -4.1524 C   0  0  0  0  0  0  0  0  0  0  0  0
  -26.0382   -8.9050   -4.2125 C   0  0  0  0  0  0  0  0  0  0  0  0
  -27.4902   -8.8752   -3.7261 C   0  0  0  0  0  0  0  0  0  0  0  0
  -28.3829   -7.9437   -4.5413 C   0  0  0  0  0  0  0  0  0  0  0  0
  -29.4432   -7.2973   -3.6477 C   0  0  0  0  0  0  0  0  0  0  0  0
  -29.3233   -5.7901   -3.6191 C   0  0  0  0  0  0  0  0  0  0  0  0
  -28.2893   -5.1688   -3.8665 O   0  0  0  0  0  0  0  0  0  0  0  0
  -30.4964   -5.1473   -3.2961 N   0  0  0  0  0  0  0  0  0  0  0  0
  -30.3883   -3.7433   -3.1520 O   0  0  0  0  0  0  0  0  0  0  0  0
  -31.2425   -5.5961   -2.7763 H   0  0  0  0  0  0  0  0  0  0  0  0
  -29.4472   -3.5781   -3.3839 H   0  0  0  0  0  0  0  0  0  0  0  0
 11 12  1  0  0  0
 12  1  1  0  0  0
  1  2  1  0  0  0
  1 10  2  0  0  0
  2  3  2  0  0  0
  3  4  1  0  0  0
  3  8  1  0  0  0
  4  5  2  0  0  0
  5  6  1  0  0  0
  6  7  2  0  0  0
  7 13  1  0  0  0
  7  8  1  0  0  0
 13 15  1  0  0  0
 13 14  1  0  0  0
 15 16  1  0  0  0
 15 21  2  0  0  0
 16 17  2  0  0  0
 17 18  1  0  0  0
 18 19  1  0  0  0
 18 20  2  0  0  0
 20 21  1  0  0  0
 21 22  1  0  0  0
  8  9  2  0  0  0
  9 10  1  0  0  0
 10 23  1  0  0  0
 23 24  1  0  0  0
 24 25  1  0  0  0
 25 26  1  0  0  0
 26 27  1  0  0  0
 27 28  1  0  0  0
 28 29  1  0  0  0
 29 30  2  0  0  0
 29 31  1  0  0  0
 31 32  1  0  0  0
 31 33  1  0  0  0
 32 34  1  0  0  0
M  END
> <minimizedAffinity>
-6.54305

$$$$
