CHEMBL3109278


 32 34  0  0  0  0  0  0  0  0999 V2000
  -25.1475   -1.4345  -12.6980 C   0  0  0  0  0  0  0  0  0  0  0  0
  -25.4907   -1.2692  -14.0440 C   0  0  0  0  0  0  0  0  0  0  0  0
  -26.7460   -1.4736  -14.8188 C   0  0  0  0  0  0  0  0  0  0  0  0
  -24.3766   -0.8116  -14.6991 N   0  0  0  0  0  0  0  0  0  0  0  0
  -23.3322   -0.6473  -13.8326 C   0  0  0  0  0  0  0  0  0  0  0  0
  -23.7724   -1.0269  -12.5740 C   0  0  0  0  0  0  0  0  0  0  0  0
  -22.9868   -1.0587  -11.3048 C   0  0  0  0  0  0  0  0  0  0  0  0
  -24.3435   -0.6318  -15.6978 H   0  0  0  0  0  0  0  0  0  0  0  0
  -22.0782   -0.1441  -14.2532 C   0  0  0  0  0  0  0  0  0  0  0  0
  -21.6406    1.1226  -14.3119 C   0  0  0  0  0  0  0  0  0  0  0  0
  -22.3039    2.4400  -13.9844 C   0  0  0  0  0  0  0  0  0  0  0  0
  -23.4295    2.6308  -13.5776 O   0  0  0  0  0  0  0  0  0  0  0  0
  -21.3323    3.4035  -14.2231 N   0  0  0  0  0  0  0  0  0  0  0  0
  -20.1418    2.8304  -14.6529 C   0  0  0  0  0  0  0  0  0  0  0  0
  -18.9613    3.4803  -14.9487 C   0  0  0  0  0  0  0  0  0  0  0  0
  -17.8763    2.6910  -15.3436 C   0  0  0  0  0  0  0  0  0  0  0  0
  -18.0050    1.2979  -15.4374 C   0  0  0  0  0  0  0  0  0  0  0  0
  -16.9466    0.5650  -15.8076 F   0  0  0  0  0  0  0  0  0  0  0  0
  -19.2017    0.6540  -15.1408 C   0  0  0  0  0  0  0  0  0  0  0  0
  -20.2696    1.4402  -14.7374 C   0  0  0  0  0  0  0  0  0  0  0  0
  -21.5039    4.3862  -14.0765 H   0  0  0  0  0  0  0  0  0  0  0  0
  -27.0164   -1.0937  -11.3013 N   0  0  0  0  0  0  0  0  0  0  0  0
  -25.9865   -1.9469  -11.6155 C   0  0  0  0  0  0  0  0  0  0  0  0
  -25.8256   -3.0347  -11.0943 O   0  0  0  0  0  0  0  0  0  0  0  0
  -27.1791   -0.3182  -11.9230 H   0  0  0  0  0  0  0  0  0  0  0  0
  -28.0048   -1.3652  -10.2891 C   0  0  0  0  0  0  0  0  0  0  0  0
  -27.5471   -1.0644   -8.8575 C   0  0  0  0  0  0  0  0  0  0  0  0
  -27.4916   -2.1737   -7.9011 N   0  0  0  0  0  0  0  0  0  0  0  0
  -27.8269   -0.4001   -5.9937 C   0  0  0  0  0  0  0  0  0  0  0  0
  -27.8521   -1.8553   -6.5040 C   0  0  0  0  0  0  0  0  0  0  0  0
  -28.1886   -3.3773   -8.4403 C   0  0  0  0  0  0  0  0  0  0  0  0
  -29.4114   -3.8565   -7.6628 C   0  0  0  0  0  0  0  0  0  0  0  0
 29 30  1  0  0  0
 30 28  1  0  0  0
 28 31  1  0  0  0
 28 27  1  0  0  0
 31 32  1  0  0  0
 27 26  1  0  0  0
 26 22  1  0  0  0
 22 23  1  0  0  0
 22 25  1  0  0  0
 23 24  2  0  0  0
 23  1  1  0  0  0
  1  2  2  0  0  0
  1  6  1  0  0  0
  2  3  1  0  0  0
  2  4  1  0  0  0
  4  5  1  0  0  0
  4  8  1  0  0  0
  5  9  1  0  0  0
  5  6  2  0  0  0
  9 10  2  0  0  0
 10 11  1  0  0  0
 10 20  1  0  0  0
 11 12  2  0  0  0
 11 13  1  0  0  0
 13 14  1  0  0  0
 13 21  1  0  0  0
 14 15  1  0  0  0
 14 20  2  0  0  0
 15 16  2  0  0  0
 16 17  1  0  0  0
 17 18  1  0  0  0
 17 19  2  0  0  0
 19 20  1  0  0  0
  6  7  1  0  0  0
M  END
> <minimizedAffinity>
-8.68418

$$$$
