CHEMBL409442


 33 37  0  0  0  0  0  0  0  0999 V2000
  -28.0635   -9.2149   -7.5953 C   0  0  0  0  0  0  0  0  0  0  0  0
  -27.6414  -10.0828   -6.6216 C   0  0  0  0  0  0  0  0  0  0  0  0
  -27.9863   -9.5627   -5.4181 N   0  0  0  0  0  0  0  0  0  0  0  0
  -27.6929  -10.1548   -4.2501 N   0  0  0  0  0  0  0  0  0  0  0  0
  -28.1499   -9.5316   -3.2169 C   0  0  0  0  0  0  0  0  0  0  0  0
  -28.8924   -8.3905   -3.2293 N   0  0  0  0  0  0  0  0  0  0  0  0
  -29.1680   -7.7851   -4.3519 C   0  0  0  0  0  0  0  0  0  0  0  0
  -28.6716   -8.3802   -5.5747 C   0  0  0  0  0  0  0  0  0  0  0  0
  -28.7293   -8.0989   -6.9513 C   0  0  0  0  0  0  0  0  0  0  0  0
  -28.1602   -9.8538  -11.1234 C   0  0  0  0  0  0  0  0  0  0  0  0
  -26.8668   -9.9583  -10.9301 N   0  0  0  0  0  0  0  0  0  0  0  0
  -26.6552   -9.7003   -9.5966 N   0  0  0  0  0  0  0  0  0  0  0  0
  -27.8354   -9.4758   -9.0522 C   0  0  0  0  0  0  0  0  0  0  0  0
  -28.8442   -9.5406   -9.9875 O   0  0  0  0  0  0  0  0  0  0  0  0
  -28.2606   -9.7835  -13.4966 C   0  0  0  0  0  0  0  0  0  0  0  0
  -28.9007  -10.0546  -12.2280 N   0  0  0  0  0  0  0  0  0  0  0  0
  -29.4945  -10.8751  -12.2110 H   0  0  0  0  0  0  0  0  0  0  0  0
  -29.3814   -6.9820   -7.7542 C   0  0  0  0  0  0  0  0  0  0  0  0
  -30.8735   -6.8676   -7.4327 C   0  0  0  0  0  0  0  0  0  0  0  0
  -28.7186   -5.6135   -7.7482 C   0  0  0  0  0  0  0  0  0  0  0  0
  -29.8937   -6.6100   -4.3005 N   0  0  0  0  0  0  0  0  0  0  0  0
  -30.7310   -6.6603   -4.8663 H   0  0  0  0  0  0  0  0  0  0  0  0
  -29.2960   -5.3260   -4.3600 C   0  0  0  0  0  0  0  0  0  0  0  0
  -27.9188   -5.1273   -4.1817 C   0  0  0  0  0  0  0  0  0  0  0  0
  -27.2532   -3.9440   -4.2199 N   0  0  0  0  0  0  0  0  0  0  0  0
  -28.0687   -2.9065   -4.4753 C   0  0  0  0  0  0  0  0  0  0  0  0
  -27.6491   -1.6140   -4.6262 N   0  0  0  0  0  0  0  0  0  0  0  0
  -28.7174   -0.8093   -4.9543 C   0  0  0  0  0  0  0  0  0  0  0  0
  -28.5517    0.6268   -5.2853 C   0  0  0  0  0  0  0  0  0  0  0  0
  -29.8501   -1.6008   -4.9267 C   0  0  0  0  0  0  0  0  0  0  0  0
  -29.4458   -2.9351   -4.6547 C   0  0  0  0  0  0  0  0  0  0  0  0
  -30.0861   -4.1855   -4.5600 C   0  0  0  0  0  0  0  0  0  0  0  0
  -26.6836   -1.3324   -4.5488 H   0  0  0  0  0  0  0  0  0  0  0  0
 15 16  1  0  0  0
 16 10  1  0  0  0
 16 17  1  0  0  0
 10 11  2  0  0  0
 10 14  1  0  0  0
 11 12  1  0  0  0
 12 13  2  0  0  0
 13  1  1  0  0  0
 13 14  1  0  0  0
  1  2  2  0  0  0
  1  9  1  0  0  0
  2  3  1  0  0  0
  3  4  1  0  0  0
  3  8  1  0  0  0
  4  5  2  0  0  0
  5  6  1  0  0  0
  6  7  2  0  0  0
  7 21  1  0  0  0
  7  8  1  0  0  0
 21 23  1  0  0  0
 21 22  1  0  0  0
 23 24  1  0  0  0
 23 32  2  0  0  0
 24 25  2  0  0  0
 25 26  1  0  0  0
 26 27  1  0  0  0
 26 31  2  0  0  0
 27 28  1  0  0  0
 27 33  1  0  0  0
 28 29  1  0  0  0
 28 30  2  0  0  0
 30 31  1  0  0  0
 31 32  1  0  0  0
  8  9  2  0  0  0
  9 18  1  0  0  0
 18 19  1  0  0  0
 18 20  1  0  0  0
M  END
> <minimizedAffinity>
-8.88217

$$$$
