CHEMBL3742200


 36 41  0  0  0  0  0  0  0  0999 V2000
  -16.3124   -3.7727  -10.4955 O   0  0  0  0  0  0  0  0  0  0  0  0
  -15.8339   -2.9594  -11.4819 C   0  0  0  0  0  0  0  0  0  0  0  0
  -15.8788   -1.6208  -11.2676 N   0  0  0  0  0  0  0  0  0  0  0  0
  -15.4060   -0.6473  -12.2397 N   0  0  0  0  0  0  0  0  0  0  0  0
  -14.8394   -0.9820  -13.4375 C   0  0  0  0  0  0  0  0  0  0  0  0
  -14.7654   -2.3691  -13.6218 C   0  0  0  0  0  0  0  0  0  0  0  0
  -14.1721   -3.0544  -14.6470 C   0  0  0  0  0  0  0  0  0  0  0  0
  -14.4280   -4.3841  -14.4250 N   0  0  0  0  0  0  0  0  0  0  0  0
  -15.0627   -4.5907  -13.2426 N   0  0  0  0  0  0  0  0  0  0  0  0
  -15.2621   -3.3701  -12.7070 C   0  0  0  0  0  0  0  0  0  0  0  0
  -16.5789   -3.1277   -9.8238 H   0  0  0  0  0  0  0  0  0  0  0  0
  -14.0813   -5.4676  -15.2839 C   0  0  0  0  0  0  0  0  0  0  0  0
  -13.9993   -6.7788  -14.7924 C   0  0  0  0  0  0  0  0  0  0  0  0
  -13.6747   -7.8342  -15.6469 C   0  0  0  0  0  0  0  0  0  0  0  0
  -13.4221   -7.5845  -16.9931 C   0  0  0  0  0  0  0  0  0  0  0  0
  -13.0418   -8.8918  -18.0432 Cl  0  0  0  0  0  0  0  0  0  0  0  0
  -13.4820   -6.2839  -17.4908 C   0  0  0  0  0  0  0  0  0  0  0  0
  -13.8124   -5.2248  -16.6384 C   0  0  0  0  0  0  0  0  0  0  0  0
  -14.4440    0.0444  -14.3819 C   0  0  0  0  0  0  0  0  0  0  0  0
  -13.1443    0.1901  -14.8281 C   0  0  0  0  0  0  0  0  0  0  0  0
  -13.1039    1.2149  -15.7250 N   0  0  0  0  0  0  0  0  0  0  0  0
  -14.3648    1.7137  -15.9558 C   0  0  0  0  0  0  0  0  0  0  0  0
  -15.2369    1.0045  -15.1172 C   0  0  0  0  0  0  0  0  0  0  0  0
  -12.2647    1.5494  -16.1798 H   0  0  0  0  0  0  0  0  0  0  0  0
  -14.5477    2.7922  -16.9444 C   0  0  0  0  0  0  0  0  0  0  0  0
  -14.9912    4.0624  -16.5364 C   0  0  0  0  0  0  0  0  0  0  0  0
  -15.1263    5.1049  -17.4542 C   0  0  0  0  0  0  0  0  0  0  0  0
  -14.7955    4.9019  -18.7914 C   0  0  0  0  0  0  0  0  0  0  0  0
  -14.3592    3.6495  -19.2141 C   0  0  0  0  0  0  0  0  0  0  0  0
  -14.2683    2.5951  -18.3013 C   0  0  0  0  0  0  0  0  0  0  0  0
  -16.6820    1.2489  -15.0279 C   0  0  0  0  0  0  0  0  0  0  0  0
  -17.6074    0.2062  -15.1791 C   0  0  0  0  0  0  0  0  0  0  0  0
  -18.9789    0.4671  -15.2349 C   0  0  0  0  0  0  0  0  0  0  0  0
  -19.4491    1.7647  -15.0551 C   0  0  0  0  0  0  0  0  0  0  0  0
  -18.5481    2.8005  -14.8243 C   0  0  0  0  0  0  0  0  0  0  0  0
  -17.1734    2.5477  -14.8327 C   0  0  0  0  0  0  0  0  0  0  0  0
  1  2  1  0  0  0
  1 11  1  0  0  0
  2  3  2  0  0  0
  2 10  1  0  0  0
  3  4  1  0  0  0
  4  5  2  0  0  0
  5 19  1  0  0  0
  5  6  1  0  0  0
 19 20  2  0  0  0
 19 23  1  0  0  0
 20 21  1  0  0  0
 21 22  1  0  0  0
 21 24  1  0  0  0
 22 25  1  0  0  0
 22 23  2  0  0  0
 25 26  1  0  0  0
 25 30  2  0  0  0
 26 27  2  0  0  0
 27 28  1  0  0  0
 28 29  2  0  0  0
 29 30  1  0  0  0
 23 31  1  0  0  0
 31 32  1  0  0  0
 31 36  2  0  0  0
 32 33  2  0  0  0
 33 34  1  0  0  0
 34 35  2  0  0  0
 35 36  1  0  0  0
  6  7  2  0  0  0
  6 10  1  0  0  0
  7  8  1  0  0  0
  8 12  1  0  0  0
  8  9  1  0  0  0
 12 13  1  0  0  0
 12 18  2  0  0  0
 13 14  2  0  0  0
 14 15  1  0  0  0
 15 16  1  0  0  0
 15 17  2  0  0  0
 17 18  1  0  0  0
  9 10  2  0  0  0
M  END
> <minimizedAffinity>
-8.65535

$$$$
