CHEMBL3323592


 28 32  0  0  0  0  0  0  0  0999 V2000
  -23.1282    0.0531  -13.7359 C   0  0  0  0  0  0  0  0  0  0  0  0
  -24.1908   -0.4727  -14.3870 N   0  0  0  0  0  0  0  0  0  0  0  0
  -25.0571   -1.0835  -13.4049 C   0  0  0  0  0  0  0  0  0  0  0  0
  -26.3248   -1.7592  -13.4128 C   0  0  0  0  0  0  0  0  0  0  0  0
  -27.0799   -2.0270  -12.2122 C   0  0  0  0  0  0  0  0  0  0  0  0
  -26.6333   -1.7052  -10.9577 C   0  0  0  0  0  0  0  0  0  0  0  0
  -25.2356   -1.2339  -10.9137 C   0  0  0  0  0  0  0  0  0  0  0  0
  -24.5045   -0.9151  -12.1449 C   0  0  0  0  0  0  0  0  0  0  0  0
  -23.2266   -0.4383  -12.4379 N   0  0  0  0  0  0  0  0  0  0  0  0
  -22.4505   -0.3915  -11.8083 H   0  0  0  0  0  0  0  0  0  0  0  0
  -19.6674    2.7453  -14.7952 C   0  0  0  0  0  0  0  0  0  0  0  0
  -20.8597    3.2299  -14.2897 C   0  0  0  0  0  0  0  0  0  0  0  0
  -21.9448    2.3535  -14.0018 C   0  0  0  0  0  0  0  0  0  0  0  0
  -21.9207    0.9576  -14.1880 C   0  0  0  0  0  0  0  0  0  0  0  0
  -20.7240    0.5131  -14.8361 C   0  0  0  0  0  0  0  0  0  0  0  0
  -19.6065    1.3868  -15.0884 C   0  0  0  0  0  0  0  0  0  0  0  0
  -27.5123   -1.9003   -9.8053 N   0  0  0  0  0  0  0  0  0  0  0  0
  -28.3604   -1.4067  -10.0923 H   0  0  0  0  0  0  0  0  0  0  0  0
  -27.9634   -2.6732   -8.5641 C   0  0  0  0  0  0  0  0  0  0  0  0
  -28.3353   -4.2660   -8.1266 C   0  0  0  0  0  0  0  0  0  0  0  0
  -28.8086   -4.7403   -6.9005 C   0  0  0  0  0  0  0  0  0  0  0  0
  -28.6282   -3.5167   -6.6274 N   0  0  0  0  0  0  0  0  0  0  0  0
  -28.4624   -2.2936   -6.2821 C   0  0  0  0  0  0  0  0  0  0  0  0
  -28.8134   -1.8285   -5.0609 C   0  0  0  0  0  0  0  0  0  0  0  0
  -28.7005   -0.4825   -4.9142 C   0  0  0  0  0  0  0  0  0  0  0  0
  -28.1874    0.2937   -5.9673 C   0  0  0  0  0  0  0  0  0  0  0  0
  -27.8277   -0.2817   -7.2065 C   0  0  0  0  0  0  0  0  0  0  0  0
  -28.0389   -1.6782   -7.4145 C   0  0  0  0  0  0  0  0  0  0  0  0
 11 12  1  0  0  0
 11 16  2  0  0  0
 12 13  2  0  0  0
 13 14  1  0  0  0
 14  1  1  0  0  0
 14 15  2  0  0  0
  1  2  2  0  0  0
  1  9  1  0  0  0
  2  3  1  0  0  0
  3  4  1  0  0  0
  3  8  2  0  0  0
  4  5  2  0  0  0
  5  6  1  0  0  0
  6 17  1  0  0  0
  6  7  2  0  0  0
 17 19  1  0  0  0
 17 18  1  0  0  0
 19 20  1  0  0  0
 19 28  2  0  0  0
 20 21  2  0  0  0
 21 22  1  0  0  0
 22 23  2  0  0  0
 23 24  1  0  0  0
 23 28  1  0  0  0
 24 25  2  0  0  0
 25 26  1  0  0  0
 26 27  2  0  0  0
 27 28  1  0  0  0
  7  8  1  0  0  0
  8  9  1  0  0  0
  9 10  1  0  0  0
 15 16  1  0  0  0
M  END
> <minimizedAffinity>
-11.56342

$$$$
