CHEMBL3633277


 45 48  0  0  0  0  0  0  0  0999 V2000
  -14.2352   -1.2471  -14.3547 N   0  0  0  0  0  0  0  0  0  0  0  0
  -15.1794   -0.2498  -14.1951 C   0  0  0  0  0  0  0  0  0  0  0  0
  -15.5425    0.2039  -13.1140 O   0  0  0  0  0  0  0  0  0  0  0  0
  -15.6737    0.1537  -15.4196 N   0  0  0  0  0  0  0  0  0  0  0  0
  -13.5812   -1.0867  -15.1154 H   0  0  0  0  0  0  0  0  0  0  0  0
  -15.7726   -0.6108  -16.0714 H   0  0  0  0  0  0  0  0  0  0  0  0
  -13.9995   -3.5656  -11.4600 C   0  0  0  0  0  0  0  0  0  0  0  0
  -12.6022   -3.5747  -11.2687 C   0  0  0  0  0  0  0  0  0  0  0  0
  -11.7777   -2.7745  -12.0578 C   0  0  0  0  0  0  0  0  0  0  0  0
  -12.3147   -1.9888  -13.0740 C   0  0  0  0  0  0  0  0  0  0  0  0
  -13.7072   -1.9741  -13.2674 C   0  0  0  0  0  0  0  0  0  0  0  0
  -14.5437   -2.7395  -12.4549 C   0  0  0  0  0  0  0  0  0  0  0  0
  -14.8114   -4.5574  -10.7347 C   0  0  0  0  0  0  0  0  0  0  0  0
  -14.9196   -4.5909   -9.5145 O   0  0  0  0  0  0  0  0  0  0  0  0
  -15.2404   -5.5301  -11.5979 O   0  0  0  0  0  0  0  0  0  0  0  0
  -14.3976   -6.6839  -11.6322 C   0  0  0  0  0  0  0  0  0  0  0  0
  -14.7184   -7.4321  -12.9446 C   0  0  0  0  0  0  0  0  0  0  0  0
  -14.1061   -8.7566  -13.1408 N   0  0  0  0  0  0  0  0  0  0  0  0
  -12.9160   -7.4295  -14.9300 C   0  0  0  0  0  0  0  0  0  0  0  0
  -13.4442   -8.7801  -14.4611 C   0  0  0  0  0  0  0  0  0  0  0  0
  -13.2323   -9.1596  -12.0290 C   0  0  0  0  0  0  0  0  0  0  0  0
  -12.1037  -10.1291  -12.3692 C   0  0  0  0  0  0  0  0  0  0  0  0
  -11.5970   -1.1744  -13.9174 O   0  0  0  0  0  0  0  0  0  0  0  0
  -11.2794    0.1253  -13.4339 C   0  0  0  0  0  0  0  0  0  0  0  0
  -16.5504    1.2513  -15.5420 C   0  0  0  0  0  0  0  0  0  0  0  0
  -17.8956    1.0469  -15.1751 C   0  0  0  0  0  0  0  0  0  0  0  0
  -18.8482    2.0823  -15.1870 C   0  0  0  0  0  0  0  0  0  0  0  0
  -18.4154    3.3319  -15.6500 C   0  0  0  0  0  0  0  0  0  0  0  0
  -17.0932    3.5403  -16.0460 C   0  0  0  0  0  0  0  0  0  0  0  0
  -16.1377    2.5221  -15.9590 C   0  0  0  0  0  0  0  0  0  0  0  0
  -20.2352    1.8807  -14.7037 C   0  0  0  0  0  0  0  0  0  0  0  0
  -21.1360    2.9594  -14.5938 C   0  0  0  0  0  0  0  0  0  0  0  0
  -22.4033    2.8320  -14.0111 C   0  0  0  0  0  0  0  0  0  0  0  0
  -22.8057    1.5409  -13.6729 C   0  0  0  0  0  0  0  0  0  0  0  0
  -23.9260    1.0698  -13.0349 N   0  0  0  0  0  0  0  0  0  0  0  0
  -24.1217   -0.2334  -13.4068 C   0  0  0  0  0  0  0  0  0  0  0  0
  -22.8788   -0.7118  -13.7594 C   0  0  0  0  0  0  0  0  0  0  0  0
  -22.0291    0.4167  -13.9274 C   0  0  0  0  0  0  0  0  0  0  0  0
  -20.6975    0.5984  -14.3383 C   0  0  0  0  0  0  0  0  0  0  0  0
  -24.5079    1.6008  -12.4009 H   0  0  0  0  0  0  0  0  0  0  0  0
  -14.9415    2.8820  -16.5007 O   0  0  0  0  0  0  0  0  0  0  0  0
  -13.8892    3.3697  -15.6963 C   0  0  0  0  0  0  0  0  0  0  0  0
  -12.6649    3.2462  -16.2511 F   0  0  0  0  0  0  0  0  0  0  0  0
  -14.1034    4.6790  -15.4436 F   0  0  0  0  0  0  0  0  0  0  0  0
  -13.8862    2.7051  -14.5217 F   0  0  0  0  0  0  0  0  0  0  0  0
 19 20  1  0  0  0
 20 18  1  0  0  0
 18 21  1  0  0  0
 18 17  1  0  0  0
 21 22  1  0  0  0
 17 16  1  0  0  0
 16 15  1  0  0  0
 15 13  1  0  0  0
 13 14  2  0  0  0
 13  7  1  0  0  0
  7  8  1  0  0  0
  7 12  2  0  0  0
  8  9  2  0  0  0
  9 10  1  0  0  0
 10 23  1  0  0  0
 10 11  2  0  0  0
 23 24  1  0  0  0
 11  1  1  0  0  0
 11 12  1  0  0  0
  1  2  1  0  0  0
  1  5  1  0  0  0
  2  3  2  0  0  0
  2  4  1  0  0  0
  4 25  1  0  0  0
  4  6  1  0  0  0
 25 26  1  0  0  0
 25 30  2  0  0  0
 26 27  2  0  0  0
 27 31  1  0  0  0
 27 28  1  0  0  0
 31 32  1  0  0  0
 31 39  2  0  0  0
 32 33  2  0  0  0
 33 34  1  0  0  0
 34 35  1  0  0  0
 34 38  2  0  0  0
 35 36  1  0  0  0
 35 40  1  0  0  0
 36 37  2  0  0  0
 37 38  1  0  0  0
 38 39  1  0  0  0
 28 29  2  0  0  0
 29 30  1  0  0  0
 30 41  1  0  0  0
 41 42  1  0  0  0
 42 43  1  0  0  0
 42 44  1  0  0  0
 42 45  1  0  0  0
M  END
> <minimizedAffinity>
-9.51850

$$$$
