CHEMBL329713


 20 22  0  0  0  0  0  0  0  0999 V2000
  -21.8025    1.9138  -14.2678 C   0  0  0  0  0  0  0  0  0  0  0  0
  -21.4888    3.1670  -14.0603 N   0  0  0  0  0  0  0  0  0  0  0  0
  -20.2190    3.4480  -14.4861 C   0  0  0  0  0  0  0  0  0  0  0  0
  -19.4990    2.3827  -14.9838 C   0  0  0  0  0  0  0  0  0  0  0  0
  -20.4946    0.9819  -14.9198 S   0  0  0  0  0  0  0  0  0  0  0  0
  -18.1230    2.3751  -15.4869 C   0  0  0  0  0  0  0  0  0  0  0  0
  -17.3817    1.1820  -15.4556 C   0  0  0  0  0  0  0  0  0  0  0  0
  -16.0509    1.1466  -15.8781 C   0  0  0  0  0  0  0  0  0  0  0  0
  -15.4457    2.3069  -16.3445 C   0  0  0  0  0  0  0  0  0  0  0  0
  -16.1660    3.5011  -16.3880 C   0  0  0  0  0  0  0  0  0  0  0  0
  -17.4949    3.5342  -15.9578 C   0  0  0  0  0  0  0  0  0  0  0  0
  -22.9852    1.3193  -14.0274 N   0  0  0  0  0  0  0  0  0  0  0  0
  -23.7961    1.6718  -14.5234 H   0  0  0  0  0  0  0  0  0  0  0  0
  -24.9446   -0.7864  -15.3235 C   0  0  0  0  0  0  0  0  0  0  0  0
  -24.2005   -0.8850  -14.0256 C   0  0  0  0  0  0  0  0  0  0  0  0
  -24.4264   -2.0535  -13.2752 C   0  0  0  0  0  0  0  0  0  0  0  0
  -23.7637   -2.2693  -12.0797 C   0  0  0  0  0  0  0  0  0  0  0  0
  -22.8831   -1.2986  -11.6634 C   0  0  0  0  0  0  0  0  0  0  0  0
  -22.6529   -0.1560  -12.3420 N   0  0  0  0  0  0  0  0  0  0  0  0
  -23.3206    0.0762  -13.5063 C   0  0  0  0  0  0  0  0  0  0  0  0
 14 15  1  0  0  0
 15 16  1  0  0  0
 15 20  2  0  0  0
 16 17  2  0  0  0
 17 18  1  0  0  0
 18 19  2  0  0  0
 19 20  1  0  0  0
 20 12  1  0  0  0
 12  1  1  0  0  0
 12 13  1  0  0  0
  1  2  2  0  0  0
  1  5  1  0  0  0
  2  3  1  0  0  0
  3  4  2  0  0  0
  4  6  1  0  0  0
  4  5  1  0  0  0
  6  7  1  0  0  0
  6 11  2  0  0  0
  7  8  2  0  0  0
  8  9  1  0  0  0
  9 10  2  0  0  0
 10 11  1  0  0  0
M  END
> <minimizedAffinity>
-8.41293

$$$$
