CHEMBL4560522


 32 34  0  0  0  0  0  0  0  0999 V2000
  -25.4463   -1.3291  -12.4646 C   0  0  0  0  0  0  0  0  0  0  0  0
  -25.5637   -1.4430  -13.8719 C   0  0  0  0  0  0  0  0  0  0  0  0
  -26.7871   -1.8432  -14.3980 C   0  0  0  0  0  0  0  0  0  0  0  0
  -27.8845   -2.1245  -13.6632 N   0  0  0  0  0  0  0  0  0  0  0  0
  -27.8090   -1.9642  -12.3405 C   0  0  0  0  0  0  0  0  0  0  0  0
  -28.9454   -2.2509  -11.5963 C   0  0  0  0  0  0  0  0  0  0  0  0
  -28.9737   -2.1417  -10.2016 C   0  0  0  0  0  0  0  0  0  0  0  0
  -27.8613   -1.6683   -9.5123 C   0  0  0  0  0  0  0  0  0  0  0  0
  -26.7569   -1.2854  -10.2916 C   0  0  0  0  0  0  0  0  0  0  0  0
  -26.6402   -1.5160  -11.6843 C   0  0  0  0  0  0  0  0  0  0  0  0
  -27.7766   -1.6377   -8.0388 C   0  0  0  0  0  0  0  0  0  0  0  0
  -27.5707   -0.4686   -7.2997 C   0  0  0  0  0  0  0  0  0  0  0  0
  -27.5771   -0.5053   -5.9030 C   0  0  0  0  0  0  0  0  0  0  0  0
  -27.7756   -1.7204   -5.2513 C   0  0  0  0  0  0  0  0  0  0  0  0
  -27.9410   -2.8793   -5.9302 N   0  0  0  0  0  0  0  0  0  0  0  0
  -27.9584   -2.8000   -7.2799 C   0  0  0  0  0  0  0  0  0  0  0  0
  -27.8180   -1.7934   -3.7448 C   0  0  0  0  0  0  0  0  0  0  0  0
  -28.4739   -2.9961   -3.3363 O   0  0  0  0  0  0  0  0  0  0  0  0
  -29.7892   -2.7332   -2.8728 C   0  0  0  0  0  0  0  0  0  0  0  0
  -24.4908   -1.1919  -14.8787 C   0  0  0  0  0  0  0  0  0  0  0  0
  -24.8561   -0.6630  -16.0802 N   0  0  0  0  0  0  0  0  0  0  0  0
  -23.3158   -1.4423  -14.6480 O   0  0  0  0  0  0  0  0  0  0  0  0
  -25.8090   -0.3386  -16.2116 H   0  0  0  0  0  0  0  0  0  0  0  0
  -24.1348   -0.4091  -16.7400 H   0  0  0  0  0  0  0  0  0  0  0  0
  -24.1965   -0.9132  -11.9075 N   0  0  0  0  0  0  0  0  0  0  0  0
  -23.4627   -1.4439  -12.3857 H   0  0  0  0  0  0  0  0  0  0  0  0
  -23.8444    0.5185  -11.8651 C   0  0  0  0  0  0  0  0  0  0  0  0
  -23.1469    0.9842  -13.1603 C   0  0  0  0  0  0  0  0  0  0  0  0
  -22.2215    3.2291  -14.0114 C   0  0  0  0  0  0  0  0  0  0  0  0
  -23.4000    2.4888  -13.3994 C   0  0  0  0  0  0  0  0  0  0  0  0
  -21.6407    0.6134  -13.1238 C   0  0  0  0  0  0  0  0  0  0  0  0
  -20.9287    0.5843  -14.4725 C   0  0  0  0  0  0  0  0  0  0  0  0
 29 30  1  0  0  0
 30 28  1  0  0  0
 28 31  1  0  0  0
 28 27  1  0  0  0
 31 32  1  0  0  0
 27 25  1  0  0  0
 25  1  1  0  0  0
 25 26  1  0  0  0
  1  2  1  0  0  0
  1 10  2  0  0  0
  2 20  1  0  0  0
  2  3  2  0  0  0
 20 21  1  0  0  0
 20 22  2  0  0  0
 21 23  1  0  0  0
 21 24  1  0  0  0
  3  4  1  0  0  0
  4  5  2  0  0  0
  5  6  1  0  0  0
  5 10  1  0  0  0
  6  7  2  0  0  0
  7  8  1  0  0  0
  8 11  1  0  0  0
  8  9  2  0  0  0
 11 12  1  0  0  0
 11 16  2  0  0  0
 12 13  2  0  0  0
 13 14  1  0  0  0
 14 17  1  0  0  0
 14 15  2  0  0  0
 17 18  1  0  0  0
 18 19  1  0  0  0
 15 16  1  0  0  0
  9 10  1  0  0  0
M  END
> <minimizedAffinity>
-3.45425

$$$$
