CHEMBL3898322


 37 41  0  0  0  0  0  0  0  0999 V2000
  -17.4797    2.1128  -15.6774 N   0  0  0  0  0  0  0  0  0  0  0  0
  -18.9094    1.8755  -15.5075 C   0  0  0  0  0  0  0  0  0  0  0  0
  -19.6565    3.0344  -15.5669 C   0  0  0  0  0  0  0  0  0  0  0  0
  -20.8971    3.1145  -15.0296 C   0  0  0  0  0  0  0  0  0  0  0  0
  -21.4744    2.0267  -14.4535 C   0  0  0  0  0  0  0  0  0  0  0  0
  -22.5569    2.2851  -13.7142 N   0  0  0  0  0  0  0  0  0  0  0  0
  -23.2730    1.3213  -13.1555 C   0  0  0  0  0  0  0  0  0  0  0  0
  -23.0429   -0.0064  -13.5104 C   0  0  0  0  0  0  0  0  0  0  0  0
  -21.8169   -0.3183  -14.1326 N   0  0  0  0  0  0  0  0  0  0  0  0
  -20.9598    0.7256  -14.5525 C   0  0  0  0  0  0  0  0  0  0  0  0
  -19.5865    0.6335  -15.0790 C   0  0  0  0  0  0  0  0  0  0  0  0
  -24.3509   -0.8146  -13.4842 C   0  0  0  0  0  0  0  0  0  0  0  0
  -25.0727   -1.0008  -12.2819 C   0  0  0  0  0  0  0  0  0  0  0  0
  -26.2820   -1.4891  -12.5236 N   0  0  0  0  0  0  0  0  0  0  0  0
  -26.3852   -1.6491  -13.8147 N   0  0  0  0  0  0  0  0  0  0  0  0
  -27.6809   -2.0224  -14.3855 C   0  0  0  0  0  0  0  0  0  0  0  0
  -25.2370   -1.2980  -14.4539 C   0  0  0  0  0  0  0  0  0  0  0  0
  -15.4811   -0.0842  -13.3693 C   0  0  0  0  0  0  0  0  0  0  0  0
  -14.3793   -0.4009  -14.2158 C   0  0  0  0  0  0  0  0  0  0  0  0
  -14.3012    0.1391  -15.5066 C   0  0  0  0  0  0  0  0  0  0  0  0
  -15.3191    0.9963  -15.9327 C   0  0  0  0  0  0  0  0  0  0  0  0
  -16.4094    1.3232  -15.1259 C   0  0  0  0  0  0  0  0  0  0  0  0
  -16.4755    0.7878  -13.8292 C   0  0  0  0  0  0  0  0  0  0  0  0
  -15.6653   -1.9641  -11.8082 C   0  0  0  0  0  0  0  0  0  0  0  0
  -15.6313   -0.6270  -12.1326 O   0  0  0  0  0  0  0  0  0  0  0  0
  -13.2619   -0.1763  -16.3450 O   0  0  0  0  0  0  0  0  0  0  0  0
  -13.3986   -0.4684  -17.6990 C   0  0  0  0  0  0  0  0  0  0  0  0
  -17.1391    3.3621  -16.4458 C   0  0  0  0  0  0  0  0  0  0  0  0
  -16.0543    4.3948  -15.8788 C   0  0  0  0  0  0  0  0  0  0  0  0
  -15.2355    4.9023  -17.0307 N   0  0  0  0  0  0  0  0  0  0  0  0
  -15.3466    4.0165  -18.2016 C   0  0  0  0  0  0  0  0  0  0  0  0
  -14.0057    3.3367  -18.3204 C   0  0  0  0  0  0  0  0  0  0  0  0
  -13.0999    4.5187  -18.1481 C   0  0  0  0  0  0  0  0  0  0  0  0
  -13.7654    5.2560  -16.9654 C   0  0  0  0  0  0  0  0  0  0  0  0
  -12.9856    4.9631  -15.6592 C   0  0  0  0  0  0  0  0  0  0  0  0
  -12.7388    6.1648  -14.9588 O   0  0  0  0  0  0  0  0  0  0  0  0
  -13.6153    6.5816  -14.7341 H   0  0  0  0  0  0  0  0  0  0  0  0
 24 25  1  0  0  0
 25 18  1  0  0  0
 18 19  1  0  0  0
 18 23  2  0  0  0
 19 20  2  0  0  0
 20 26  1  0  0  0
 20 21  1  0  0  0
 26 27  1  0  0  0
 21 22  2  0  0  0
 22  1  1  0  0  0
 22 23  1  0  0  0
  1 28  1  0  0  0
  1  2  1  0  0  0
 28 29  1  0  0  0
 29 30  1  0  0  0
 30 31  1  0  0  0
 30 34  1  0  0  0
 31 32  1  0  0  0
 32 33  1  0  0  0
 33 34  1  0  0  0
 34 35  1  0  0  0
 35 36  1  0  0  0
 36 37  1  0  0  0
  2  3  1  0  0  0
  2 11  2  0  0  0
  3  4  2  0  0  0
  4  5  1  0  0  0
  5  6  1  0  0  0
  5 10  2  0  0  0
  6  7  2  0  0  0
  7  8  1  0  0  0
  8 12  1  0  0  0
  8  9  2  0  0  0
 12 13  1  0  0  0
 12 17  2  0  0  0
 13 14  2  0  0  0
 14 15  1  0  0  0
 15 16  1  0  0  0
 15 17  1  0  0  0
  9 10  1  0  0  0
 10 11  1  0  0  0
M  END
> <minimizedAffinity>
-8.43954

$$$$
