CHEMBL3656114


 38 41  0  0  0  0  0  0  0  0999 V2000
  -22.1277   -0.3669  -14.3855 O   0  0  0  0  0  0  0  0  0  0  0  0
  -19.8881    2.5113  -14.9889 C   0  0  0  0  0  0  0  0  0  0  0  0
  -20.3454    1.1983  -14.9921 C   0  0  0  0  0  0  0  0  0  0  0  0
  -21.6044    0.9136  -14.4769 C   0  0  0  0  0  0  0  0  0  0  0  0
  -22.4116    1.9714  -14.0713 C   0  0  0  0  0  0  0  0  0  0  0  0
  -21.8819    3.2583  -14.1321 C   0  0  0  0  0  0  0  0  0  0  0  0
  -20.6298    3.5546  -14.5654 N   0  0  0  0  0  0  0  0  0  0  0  0
  -16.3391    2.6973  -16.0947 C   0  0  0  0  0  0  0  0  0  0  0  0
  -16.6699    4.0206  -15.8598 C   0  0  0  0  0  0  0  0  0  0  0  0
  -17.9916    4.0755  -15.4697 N   0  0  0  0  0  0  0  0  0  0  0  0
  -18.5246    2.8109  -15.4227 C   0  0  0  0  0  0  0  0  0  0  0  0
  -17.5235    1.9538  -15.8348 C   0  0  0  0  0  0  0  0  0  0  0  0
  -18.5142    4.9135  -15.2387 H   0  0  0  0  0  0  0  0  0  0  0  0
  -15.0922    0.7240  -16.6461 N   0  0  0  0  0  0  0  0  0  0  0  0
  -15.0835    2.0930  -16.5232 C   0  0  0  0  0  0  0  0  0  0  0  0
  -14.0897    2.7735  -16.7629 O   0  0  0  0  0  0  0  0  0  0  0  0
  -15.9718    0.2367  -16.5665 H   0  0  0  0  0  0  0  0  0  0  0  0
  -13.8887   -0.0392  -18.6350 C   0  0  0  0  0  0  0  0  0  0  0  0
  -13.9287    0.0127  -17.1193 C   0  0  0  0  0  0  0  0  0  0  0  0
  -23.3054   -0.5653  -13.6885 C   0  0  0  0  0  0  0  0  0  0  0  0
  -23.4602   -0.2256  -12.3496 C   0  0  0  0  0  0  0  0  0  0  0  0
  -24.6245   -0.5571  -11.6651 C   0  0  0  0  0  0  0  0  0  0  0  0
  -25.7083   -1.1680  -12.3056 C   0  0  0  0  0  0  0  0  0  0  0  0
  -25.5974   -1.3989  -13.6850 C   0  0  0  0  0  0  0  0  0  0  0  0
  -24.3997   -1.1016  -14.3716 C   0  0  0  0  0  0  0  0  0  0  0  0
  -26.8839   -1.5622  -11.6050 N   0  0  0  0  0  0  0  0  0  0  0  0
  -26.9535   -1.8326  -10.2472 C   0  0  0  0  0  0  0  0  0  0  0  0
  -26.0168   -1.7228   -9.4543 O   0  0  0  0  0  0  0  0  0  0  0  0
  -28.2047   -2.2760   -9.8370 N   0  0  0  0  0  0  0  0  0  0  0  0
  -27.7363   -1.6392  -12.1445 H   0  0  0  0  0  0  0  0  0  0  0  0
  -28.6769   -2.8641  -10.5061 H   0  0  0  0  0  0  0  0  0  0  0  0
  -28.4070   -2.6075   -8.4676 C   0  0  0  0  0  0  0  0  0  0  0  0
  -28.7162   -3.9230   -8.1238 C   0  0  0  0  0  0  0  0  0  0  0  0
  -28.8801   -4.2742   -6.7805 C   0  0  0  0  0  0  0  0  0  0  0  0
  -28.7678   -3.3106   -5.7788 C   0  0  0  0  0  0  0  0  0  0  0  0
  -28.4596   -1.9851   -6.1031 C   0  0  0  0  0  0  0  0  0  0  0  0
  -28.3140   -0.9524   -5.0256 C   0  0  0  0  0  0  0  0  0  0  0  0
  -28.2794   -1.6417   -7.4559 C   0  0  0  0  0  0  0  0  0  0  0  0
 18 19  1  0  0  0
 19 14  1  0  0  0
 14 15  1  0  0  0
 14 17  1  0  0  0
 15 16  2  0  0  0
 15  8  1  0  0  0
  8  9  2  0  0  0
  8 12  1  0  0  0
  9 10  1  0  0  0
 10 11  1  0  0  0
 10 13  1  0  0  0
 11  2  1  0  0  0
 11 12  2  0  0  0
  2  3  1  0  0  0
  2  7  2  0  0  0
  3  4  2  0  0  0
  4  1  1  0  0  0
  4  5  1  0  0  0
  1 20  1  0  0  0
 20 21  1  0  0  0
 20 25  2  0  0  0
 21 22  2  0  0  0
 22 23  1  0  0  0
 23 26  1  0  0  0
 23 24  2  0  0  0
 26 27  1  0  0  0
 26 30  1  0  0  0
 27 28  2  0  0  0
 27 29  1  0  0  0
 29 32  1  0  0  0
 29 31  1  0  0  0
 32 33  1  0  0  0
 32 38  2  0  0  0
 33 34  2  0  0  0
 34 35  1  0  0  0
 35 36  2  0  0  0
 36 37  1  0  0  0
 36 38  1  0  0  0
 24 25  1  0  0  0
  5  6  2  0  0  0
  6  7  1  0  0  0
M  END
> <minimizedAffinity>
-11.43526

$$$$
