CHEMBL1934332


 41 45  0  0  0  0  0  0  0  0999 V2000
  -16.9346    2.7296  -15.0744 N   0  0  0  0  0  0  0  0  0  0  0  0
  -16.9350    3.7235  -15.2812 H   0  0  0  0  0  0  0  0  0  0  0  0
  -13.6922   -0.7719  -13.3869 C   0  0  0  0  0  0  0  0  0  0  0  0
  -14.9380   -0.3496  -12.9334 C   0  0  0  0  0  0  0  0  0  0  0  0
  -15.6510    0.5983  -13.6558 C   0  0  0  0  0  0  0  0  0  0  0  0
  -15.1274    1.1359  -14.8521 C   0  0  0  0  0  0  0  0  0  0  0  0
  -15.7780    2.1237  -15.6136 C   0  0  0  0  0  0  0  0  0  0  0  0
  -15.3030    2.5425  -16.7966 N   0  0  0  0  0  0  0  0  0  0  0  0
  -14.1444    2.0038  -17.1888 C   0  0  0  0  0  0  0  0  0  0  0  0
  -13.4128    1.1010  -16.5195 N   0  0  0  0  0  0  0  0  0  0  0  0
  -13.9083    0.6661  -15.3500 C   0  0  0  0  0  0  0  0  0  0  0  0
  -13.2021   -0.2701  -14.6013 C   0  0  0  0  0  0  0  0  0  0  0  0
  -12.8783   -1.6633  -12.7320 O   0  0  0  0  0  0  0  0  0  0  0  0
  -13.3242   -3.0217  -12.7616 C   0  0  0  0  0  0  0  0  0  0  0  0
  -17.1562   -5.6842  -12.1701 C   0  0  0  0  0  0  0  0  0  0  0  0
  -16.0001   -5.1521  -11.4453 N   0  0  0  0  0  0  0  0  0  0  0  0
  -14.7566   -5.6855  -12.0202 C   0  0  0  0  0  0  0  0  0  0  0  0
  -13.5172   -5.1199  -11.3237 C   0  0  0  0  0  0  0  0  0  0  0  0
  -13.5026   -3.5875  -11.3449 C   0  0  0  0  0  0  0  0  0  0  0  0
  -14.8168   -3.0796  -10.7335 C   0  0  0  0  0  0  0  0  0  0  0  0
  -16.0449   -3.6848  -11.4248 C   0  0  0  0  0  0  0  0  0  0  0  0
  -18.2090    2.2021  -14.8224 C   0  0  0  0  0  0  0  0  0  0  0  0
  -18.4567    0.8821  -15.2003 C   0  0  0  0  0  0  0  0  0  0  0  0
  -19.7496    0.3593  -15.1911 C   0  0  0  0  0  0  0  0  0  0  0  0
  -20.8524    1.1468  -14.8509 C   0  0  0  0  0  0  0  0  0  0  0  0
  -20.5991    2.4525  -14.4005 C   0  0  0  0  0  0  0  0  0  0  0  0
  -21.8927    3.4973  -13.9198 Cl  0  0  0  0  0  0  0  0  0  0  0  0
  -19.2937    2.9743  -14.3952 C   0  0  0  0  0  0  0  0  0  0  0  0
  -22.1912    0.6750  -15.0017 N   0  0  0  0  0  0  0  0  0  0  0  0
  -22.9505    0.1455  -13.9740 C   0  0  0  0  0  0  0  0  0  0  0  0
  -22.5836    0.0760  -12.8022 O   0  0  0  0  0  0  0  0  0  0  0  0
  -24.1693   -0.3719  -14.3875 N   0  0  0  0  0  0  0  0  0  0  0  0
  -22.5363    0.6024  -15.9500 H   0  0  0  0  0  0  0  0  0  0  0  0
  -24.1567   -0.8077  -15.2981 H   0  0  0  0  0  0  0  0  0  0  0  0
  -25.0198   -0.9678  -13.4149 C   0  0  0  0  0  0  0  0  0  0  0  0
  -24.6742   -0.8943  -12.0644 C   0  0  0  0  0  0  0  0  0  0  0  0
  -25.5676   -1.3473  -11.0851 C   0  0  0  0  0  0  0  0  0  0  0  0
  -26.7824   -1.9218  -11.4567 C   0  0  0  0  0  0  0  0  0  0  0  0
  -27.0995   -2.0367  -12.8035 C   0  0  0  0  0  0  0  0  0  0  0  0
  -28.2645   -2.5917  -13.1624 F   0  0  0  0  0  0  0  0  0  0  0  0
  -26.2330   -1.5637  -13.7823 C   0  0  0  0  0  0  0  0  0  0  0  0
 15 16  1  0  0  0
 16 17  1  0  0  0
 16 21  1  0  0  0
 17 18  1  0  0  0
 18 19  1  0  0  0
 19 14  1  0  0  0
 19 20  1  0  0  0
 14 13  1  0  0  0
 13  3  1  0  0  0
  3  4  1  0  0  0
  3 12  2  0  0  0
  4  5  2  0  0  0
  5  6  1  0  0  0
  6  7  1  0  0  0
  6 11  2  0  0  0
  7  1  1  0  0  0
  7  8  2  0  0  0
  1 22  1  0  0  0
  1  2  1  0  0  0
 22 23  1  0  0  0
 22 28  2  0  0  0
 23 24  2  0  0  0
 24 25  1  0  0  0
 25 29  1  0  0  0
 25 26  2  0  0  0
 29 30  1  0  0  0
 29 33  1  0  0  0
 30 31  2  0  0  0
 30 32  1  0  0  0
 32 35  1  0  0  0
 32 34  1  0  0  0
 35 36  1  0  0  0
 35 41  2  0  0  0
 36 37  2  0  0  0
 37 38  1  0  0  0
 38 39  2  0  0  0
 39 40  1  0  0  0
 39 41  1  0  0  0
 26 27  1  0  0  0
 26 28  1  0  0  0
  8  9  1  0  0  0
  9 10  2  0  0  0
 10 11  1  0  0  0
 11 12  1  0  0  0
 20 21  1  0  0  0
M  END
> <minimizedAffinity>
-10.24543

$$$$
