CHEMBL363130


 30 32  0  0  0  0  0  0  0  0999 V2000
  -28.7243   -9.3445   -6.6847 C   0  0  0  0  0  0  0  0  0  0  0  0
  -28.7653  -10.0207   -5.6539 O   0  0  0  0  0  0  0  0  0  0  0  0
  -28.6951   -7.9527   -6.4921 N   0  0  0  0  0  0  0  0  0  0  0  0
  -29.0704   -7.0850   -7.4702 N   0  0  0  0  0  0  0  0  0  0  0  0
  -28.7677   -5.9062   -6.9365 C   0  0  0  0  0  0  0  0  0  0  0  0
  -28.2963   -5.9647   -5.6547 N   0  0  0  0  0  0  0  0  0  0  0  0
  -28.2520   -7.2428   -5.3868 C   0  0  0  0  0  0  0  0  0  0  0  0
  -27.7368   -7.7996   -4.2760 N   0  0  0  0  0  0  0  0  0  0  0  0
  -27.5083   -7.1957   -3.4936 H   0  0  0  0  0  0  0  0  0  0  0  0
  -27.9436   -8.7687   -4.0357 H   0  0  0  0  0  0  0  0  0  0  0  0
  -31.1401  -10.3932   -8.6299 C   0  0  0  0  0  0  0  0  0  0  0  0
  -29.6629  -10.3791   -8.8832 C   0  0  0  0  0  0  0  0  0  0  0  0
  -29.1164  -10.8044  -10.1403 C   0  0  0  0  0  0  0  0  0  0  0  0
  -27.7513  -10.6719  -10.2051 C   0  0  0  0  0  0  0  0  0  0  0  0
  -27.1039  -10.0594   -8.7553 S   0  0  0  0  0  0  0  0  0  0  0  0
  -28.6558   -9.9409   -8.0222 C   0  0  0  0  0  0  0  0  0  0  0  0
  -28.8136   -4.7410   -7.6022 N   0  0  0  0  0  0  0  0  0  0  0  0
  -28.9852   -4.7897   -8.5972 H   0  0  0  0  0  0  0  0  0  0  0  0
  -28.8232   -3.4399   -7.0767 C   0  0  0  0  0  0  0  0  0  0  0  0
  -29.7627   -3.0885   -6.0976 C   0  0  0  0  0  0  0  0  0  0  0  0
  -29.8387   -1.7760   -5.6221 C   0  0  0  0  0  0  0  0  0  0  0  0
  -28.9537   -0.8155   -6.1169 C   0  0  0  0  0  0  0  0  0  0  0  0
  -28.0227   -1.1400   -7.0987 C   0  0  0  0  0  0  0  0  0  0  0  0
  -27.9680   -2.4450   -7.5774 C   0  0  0  0  0  0  0  0  0  0  0  0
  -29.0245    0.8421   -5.5234 S   0  0  0  0  0  0  0  0  0  0  0  0
  -28.4625    1.6966   -6.8460 N   0  0  0  0  0  0  0  0  0  0  0  0
  -30.4079    1.2319   -5.3503 O   0  0  0  0  0  0  0  0  0  0  0  0
  -28.0390    1.0190   -4.4816 O   0  0  0  0  0  0  0  0  0  0  0  0
  -29.1943    2.3126   -7.1984 H   0  0  0  0  0  0  0  0  0  0  0  0
  -27.5923    2.1697   -6.6062 H   0  0  0  0  0  0  0  0  0  0  0  0
 11 12  1  0  0  0
 12 13  1  0  0  0
 12 16  2  0  0  0
 13 14  2  0  0  0
 14 15  1  0  0  0
 15 16  1  0  0  0
 16  1  1  0  0  0
  1  2  2  0  0  0
  1  3  1  0  0  0
  3  4  1  0  0  0
  3  7  1  0  0  0
  4  5  2  0  0  0
  5 17  1  0  0  0
  5  6  1  0  0  0
 17 19  1  0  0  0
 17 18  1  0  0  0
 19 20  1  0  0  0
 19 24  2  0  0  0
 20 21  2  0  0  0
 21 22  1  0  0  0
 22 25  1  0  0  0
 22 23  2  0  0  0
 25 26  1  0  0  0
 25 27  2  0  0  0
 25 28  2  0  0  0
 26 29  1  0  0  0
 26 30  1  0  0  0
 23 24  1  0  0  0
  6  7  2  0  0  0
  7  8  1  0  0  0
  8  9  1  0  0  0
  8 10  1  0  0  0
M  END
> <minimizedAffinity>
-8.19979

$$$$
