CHEMBL3898346


 33 36  0  0  0  0  0  0  0  0999 V2000
  -16.7525    1.7493  -15.3335 N   0  0  0  0  0  0  0  0  0  0  0  0
  -18.1976    1.7075  -15.4023 C   0  0  0  0  0  0  0  0  0  0  0  0
  -18.7809    2.9619  -15.5955 C   0  0  0  0  0  0  0  0  0  0  0  0
  -20.0636    3.1949  -15.1461 C   0  0  0  0  0  0  0  0  0  0  0  0
  -20.8404    2.1964  -14.6365 C   0  0  0  0  0  0  0  0  0  0  0  0
  -21.9672    2.6417  -14.0816 N   0  0  0  0  0  0  0  0  0  0  0  0
  -22.8602    1.7250  -13.6943 C   0  0  0  0  0  0  0  0  0  0  0  0
  -22.6713    0.3844  -13.9366 C   0  0  0  0  0  0  0  0  0  0  0  0
  -21.4676   -0.0982  -14.3941 N   0  0  0  0  0  0  0  0  0  0  0  0
  -20.4598    0.8336  -14.7130 C   0  0  0  0  0  0  0  0  0  0  0  0
  -19.0632    0.6311  -15.0694 C   0  0  0  0  0  0  0  0  0  0  0  0
  -23.8758   -0.4432  -13.7909 C   0  0  0  0  0  0  0  0  0  0  0  0
  -24.7325   -0.9839  -14.7912 C   0  0  0  0  0  0  0  0  0  0  0  0
  -25.8847   -1.4551  -14.2940 N   0  0  0  0  0  0  0  0  0  0  0  0
  -25.7783   -1.2043  -12.9784 N   0  0  0  0  0  0  0  0  0  0  0  0
  -26.6628   -1.8396  -12.0304 C   0  0  0  0  0  0  0  0  0  0  0  0
  -24.6898   -0.4362  -12.6695 C   0  0  0  0  0  0  0  0  0  0  0  0
  -14.1334    2.0155  -18.0015 C   0  0  0  0  0  0  0  0  0  0  0  0
  -14.1639    3.3786  -18.2955 C   0  0  0  0  0  0  0  0  0  0  0  0
  -15.0521    4.2068  -17.6170 C   0  0  0  0  0  0  0  0  0  0  0  0
  -15.8724    3.6786  -16.6124 C   0  0  0  0  0  0  0  0  0  0  0  0
  -15.8655    2.3146  -16.2817 C   0  0  0  0  0  0  0  0  0  0  0  0
  -14.9969    1.4892  -17.0223 C   0  0  0  0  0  0  0  0  0  0  0  0
  -13.7140   -0.2552  -18.5248 C   0  0  0  0  0  0  0  0  0  0  0  0
  -13.3304    1.1145  -18.6568 O   0  0  0  0  0  0  0  0  0  0  0  0
  -15.1893    5.5535  -17.8278 O   0  0  0  0  0  0  0  0  0  0  0  0
  -14.5714    6.0656  -19.0039 C   0  0  0  0  0  0  0  0  0  0  0  0
  -16.2908    0.4884  -14.6264 C   0  0  0  0  0  0  0  0  0  0  0  0
  -15.8258    0.6354  -13.1473 C   0  0  0  0  0  0  0  0  0  0  0  0
  -15.9325   -0.6477  -12.3168 C   0  0  0  0  0  0  0  0  0  0  0  0
  -14.4019    1.0528  -13.1246 N   0  0  0  0  0  0  0  0  0  0  0  0
  -13.8046    0.2548  -13.3554 H   0  0  0  0  0  0  0  0  0  0  0  0
  -14.1436    1.3138  -12.1703 H   0  0  0  0  0  0  0  0  0  0  0  0
 24 25  1  0  0  0
 25 18  1  0  0  0
 18 19  1  0  0  0
 18 23  2  0  0  0
 19 20  2  0  0  0
 20 26  1  0  0  0
 20 21  1  0  0  0
 26 27  1  0  0  0
 21 22  2  0  0  0
 22  1  1  0  0  0
 22 23  1  0  0  0
  1 28  1  0  0  0
  1  2  1  0  0  0
 28 29  1  0  0  0
 29 30  1  0  0  0
 29 31  1  0  0  0
 31 32  1  0  0  0
 31 33  1  0  0  0
  2  3  1  0  0  0
  2 11  2  0  0  0
  3  4  2  0  0  0
  4  5  1  0  0  0
  5  6  1  0  0  0
  5 10  2  0  0  0
  6  7  2  0  0  0
  7  8  1  0  0  0
  8 12  1  0  0  0
  8  9  2  0  0  0
 12 13  1  0  0  0
 12 17  2  0  0  0
 13 14  2  0  0  0
 14 15  1  0  0  0
 15 16  1  0  0  0
 15 17  1  0  0  0
  9 10  1  0  0  0
 10 11  1  0  0  0
M  END
> <minimizedAffinity>
-8.58719

$$$$
