CHEMBL2032026


 40 44  0  0  0  0  0  0  0  0999 V2000
  -25.8362   -1.8560   -9.9733 N   0  0  0  0  0  0  0  0  0  0  0  0
  -27.2144   -1.7521   -9.9162 C   0  0  0  0  0  0  0  0  0  0  0  0
  -27.9279   -1.2155  -10.7572 O   0  0  0  0  0  0  0  0  0  0  0  0
  -25.3411   -2.1830   -9.1487 H   0  0  0  0  0  0  0  0  0  0  0  0
  -27.8445   -2.3595   -8.7146 C   0  0  0  0  0  0  0  0  0  0  0  0
  -28.4697   -1.7418   -7.6850 C   0  0  0  0  0  0  0  0  0  0  0  0
  -28.5733   -0.2628   -7.4595 C   0  0  0  0  0  0  0  0  0  0  0  0
  -29.0407   -2.6522   -6.7719 N   0  0  0  0  0  0  0  0  0  0  0  0
  -28.5020   -3.9176   -7.1283 N   0  0  0  0  0  0  0  0  0  0  0  0
  -27.8823   -3.8063   -8.3806 C   0  0  0  0  0  0  0  0  0  0  0  0
  -27.4459   -4.6708   -9.1296 O   0  0  0  0  0  0  0  0  0  0  0  0
  -29.0146   -5.1318   -6.6252 C   0  0  0  0  0  0  0  0  0  0  0  0
  -30.1725   -5.6695   -7.1988 C   0  0  0  0  0  0  0  0  0  0  0  0
  -30.6535   -6.9143   -6.7831 C   0  0  0  0  0  0  0  0  0  0  0  0
  -30.0001   -7.6133   -5.7692 C   0  0  0  0  0  0  0  0  0  0  0  0
  -28.8620   -7.0727   -5.1761 C   0  0  0  0  0  0  0  0  0  0  0  0
  -28.3675   -5.8413   -5.6099 C   0  0  0  0  0  0  0  0  0  0  0  0
  -29.1716   -2.3761   -5.3194 C   0  0  0  0  0  0  0  0  0  0  0  0
  -27.8064   -2.2371   -4.6238 C   0  0  0  0  0  0  0  0  0  0  0  0
  -27.4728   -0.8871   -4.3139 O   0  0  0  0  0  0  0  0  0  0  0  0
  -27.3282   -0.4427   -5.1692 H   0  0  0  0  0  0  0  0  0  0  0  0
  -23.5367   -0.8205  -13.3249 C   0  0  0  0  0  0  0  0  0  0  0  0
  -22.9091   -1.2205  -12.1474 C   0  0  0  0  0  0  0  0  0  0  0  0
  -23.6799   -1.5780  -11.0275 C   0  0  0  0  0  0  0  0  0  0  0  0
  -25.0697   -1.5297  -11.1104 C   0  0  0  0  0  0  0  0  0  0  0  0
  -25.6792   -1.2066  -12.2639 N   0  0  0  0  0  0  0  0  0  0  0  0
  -24.9198   -0.8770  -13.3404 C   0  0  0  0  0  0  0  0  0  0  0  0
  -22.7300   -0.3818  -14.3524 O   0  0  0  0  0  0  0  0  0  0  0  0
  -18.1394    1.8768  -15.1328 C   0  0  0  0  0  0  0  0  0  0  0  0
  -18.5709    0.5799  -15.3640 C   0  0  0  0  0  0  0  0  0  0  0  0
  -19.9101    0.2561  -15.1814 C   0  0  0  0  0  0  0  0  0  0  0  0
  -20.8351    1.1945  -14.6762 C   0  0  0  0  0  0  0  0  0  0  0  0
  -22.1670    0.8845  -14.3057 C   0  0  0  0  0  0  0  0  0  0  0  0
  -23.0329    1.9025  -13.9154 C   0  0  0  0  0  0  0  0  0  0  0  0
  -22.5307    3.1855  -13.8398 C   0  0  0  0  0  0  0  0  0  0  0  0
  -21.2455    3.5052  -14.1057 N   0  0  0  0  0  0  0  0  0  0  0  0
  -20.4099    2.5311  -14.5058 C   0  0  0  0  0  0  0  0  0  0  0  0
  -19.0738    2.8425  -14.7428 C   0  0  0  0  0  0  0  0  0  0  0  0
  -16.6688    3.5199  -16.0017 C   0  0  0  0  0  0  0  0  0  0  0  0
  -16.8482    2.3103  -15.2685 O   0  0  0  0  0  0  0  0  0  0  0  0
 39 40  1  0  0  0
 40 29  1  0  0  0
 29 30  1  0  0  0
 29 38  2  0  0  0
 30 31  2  0  0  0
 31 32  1  0  0  0
 32 33  1  0  0  0
 32 37  2  0  0  0
 33 28  1  0  0  0
 33 34  2  0  0  0
 28 22  1  0  0  0
 22 23  1  0  0  0
 22 27  2  0  0  0
 23 24  2  0  0  0
 24 25  1  0  0  0
 25  1  1  0  0  0
 25 26  2  0  0  0
  1  2  1  0  0  0
  1  4  1  0  0  0
  2  3  2  0  0  0
  2  5  1  0  0  0
  5  6  2  0  0  0
  5 10  1  0  0  0
  6  7  1  0  0  0
  6  8  1  0  0  0
  8 18  1  0  0  0
  8  9  1  0  0  0
 18 19  1  0  0  0
 19 20  1  0  0  0
 20 21  1  0  0  0
  9 12  1  0  0  0
  9 10  1  0  0  0
 12 13  1  0  0  0
 12 17  2  0  0  0
 13 14  2  0  0  0
 14 15  1  0  0  0
 15 16  2  0  0  0
 16 17  1  0  0  0
 10 11  2  0  0  0
 26 27  1  0  0  0
 34 35  1  0  0  0
 35 36  2  0  0  0
 36 37  1  0  0  0
 37 38  1  0  0  0
M  END
> <minimizedAffinity>
-9.74570

$$$$
