CHEMBL3628811


 33 37  0  0  0  0  0  0  0  0999 V2000
  -19.1717    2.0713  -14.5956 C   0  0  0  0  0  0  0  0  0  0  0  0
  -18.7277    3.2015  -15.2800 C   0  0  0  0  0  0  0  0  0  0  0  0
  -17.4888    3.2142  -15.9081 C   0  0  0  0  0  0  0  0  0  0  0  0
  -16.6260    2.1292  -15.7792 C   0  0  0  0  0  0  0  0  0  0  0  0
  -17.0449    0.9990  -15.0754 C   0  0  0  0  0  0  0  0  0  0  0  0
  -18.3149    0.9731  -14.4767 C   0  0  0  0  0  0  0  0  0  0  0  0
  -21.1497    0.0648  -15.1379 O   0  0  0  0  0  0  0  0  0  0  0  0
  -21.3745    0.9738  -14.3534 C   0  0  0  0  0  0  0  0  0  0  0  0
  -20.4733    1.9859  -14.0485 N   0  0  0  0  0  0  0  0  0  0  0  0
  -22.5428    1.0919  -13.6304 N   0  0  0  0  0  0  0  0  0  0  0  0
  -20.6532    2.5353  -13.2233 H   0  0  0  0  0  0  0  0  0  0  0  0
  -22.6644    1.9267  -13.0833 H   0  0  0  0  0  0  0  0  0  0  0  0
  -23.6096    0.1620  -13.6284 C   0  0  0  0  0  0  0  0  0  0  0  0
  -24.0952   -0.4823  -14.7748 C   0  0  0  0  0  0  0  0  0  0  0  0
  -25.1546   -1.3895  -14.6916 C   0  0  0  0  0  0  0  0  0  0  0  0
  -25.7306   -1.6720  -13.4618 C   0  0  0  0  0  0  0  0  0  0  0  0
  -25.2423   -1.0467  -12.3145 C   0  0  0  0  0  0  0  0  0  0  0  0
  -26.0072   -1.4460  -10.6342 Br  0  0  0  0  0  0  0  0  0  0  0  0
  -24.1898   -0.1338  -12.3945 C   0  0  0  0  0  0  0  0  0  0  0  0
  -15.3709    2.1144  -16.3530 O   0  0  0  0  0  0  0  0  0  0  0  0
  -14.3414    2.7118  -15.6239 C   0  0  0  0  0  0  0  0  0  0  0  0
  -13.8517    2.0622  -14.5389 N   0  0  0  0  0  0  0  0  0  0  0  0
  -12.8797    2.6377  -13.8306 C   0  0  0  0  0  0  0  0  0  0  0  0
  -12.2618    3.7828  -14.1056 N   0  0  0  0  0  0  0  0  0  0  0  0
  -12.7358    4.3765  -15.2151 C   0  0  0  0  0  0  0  0  0  0  0  0
  -12.0360    5.8271  -15.7669 S   0  0  0  0  0  0  0  0  0  0  0  0
  -13.1318    5.9309  -17.0584 C   0  0  0  0  0  0  0  0  0  0  0  0
  -14.0357    4.8809  -17.0834 C   0  0  0  0  0  0  0  0  0  0  0  0
  -13.7788    3.9345  -16.0206 C   0  0  0  0  0  0  0  0  0  0  0  0
  -15.1331    4.8279  -18.1106 C   0  0  0  0  0  0  0  0  0  0  0  0
  -14.8471    5.7559  -19.3040 C   0  0  0  0  0  0  0  0  0  0  0  0
  -14.3766    7.1420  -18.8412 C   0  0  0  0  0  0  0  0  0  0  0  0
  -13.0625    7.0474  -18.0556 C   0  0  0  0  0  0  0  0  0  0  0  0
  7  8  2  0  0  0
  8  9  1  0  0  0
  8 10  1  0  0  0
  9  1  1  0  0  0
  9 11  1  0  0  0
  1  2  1  0  0  0
  1  6  2  0  0  0
  2  3  2  0  0  0
  3  4  1  0  0  0
  4 20  1  0  0  0
  4  5  2  0  0  0
 20 21  1  0  0  0
 21 22  1  0  0  0
 21 29  2  0  0  0
 22 23  2  0  0  0
 23 24  1  0  0  0
 24 25  2  0  0  0
 25 26  1  0  0  0
 25 29  1  0  0  0
 26 27  1  0  0  0
 27 28  2  0  0  0
 27 33  1  0  0  0
 28 29  1  0  0  0
 28 30  1  0  0  0
 30 31  1  0  0  0
 31 32  1  0  0  0
 32 33  1  0  0  0
  5  6  1  0  0  0
 10 13  1  0  0  0
 10 12  1  0  0  0
 13 14  1  0  0  0
 13 19  2  0  0  0
 14 15  2  0  0  0
 15 16  1  0  0  0
 16 17  2  0  0  0
 17 18  1  0  0  0
 17 19  1  0  0  0
M  END
> <minimizedAffinity>
-9.61716

$$$$
