CHEMBL3706824


 35 38  0  0  0  0  0  0  0  0999 V2000
  -29.1096   -8.6087   -5.6071 N   0  0  0  0  0  0  0  0  0  0  0  0
  -28.9311   -9.1574   -4.7610 H   0  0  0  0  0  0  0  0  0  0  0  0
  -24.7503  -11.2906   -6.1506 C   0  0  0  0  0  0  0  0  0  0  0  0
  -25.3306  -11.0328   -7.4178 C   0  0  0  0  0  0  0  0  0  0  0  0
  -26.5408  -10.3631   -7.6015 C   0  0  0  0  0  0  0  0  0  0  0  0
  -27.0459  -10.2251   -8.8343 N   0  0  0  0  0  0  0  0  0  0  0  0
  -28.2245   -9.5987   -8.9407 C   0  0  0  0  0  0  0  0  0  0  0  0
  -28.9297   -9.0678   -7.9374 N   0  0  0  0  0  0  0  0  0  0  0  0
  -28.4082   -9.1899   -6.7035 C   0  0  0  0  0  0  0  0  0  0  0  0
  -27.1961   -9.8730   -6.4737 C   0  0  0  0  0  0  0  0  0  0  0  0
  -26.6311  -10.1214   -5.2029 C   0  0  0  0  0  0  0  0  0  0  0  0
  -25.4202  -10.8199   -5.0153 C   0  0  0  0  0  0  0  0  0  0  0  0
  -25.2120  -10.9850   -3.6789 O   0  0  0  0  0  0  0  0  0  0  0  0
  -25.2031  -12.2446   -3.0394 C   0  0  0  0  0  0  0  0  0  0  0  0
  -23.6017  -12.0311   -6.2987 O   0  0  0  0  0  0  0  0  0  0  0  0
  -23.2204  -12.4133   -7.6042 C   0  0  0  0  0  0  0  0  0  0  0  0
  -21.7765  -12.0825   -7.9615 C   0  0  0  0  0  0  0  0  0  0  0  0
  -20.9061   -9.9599   -7.3224 C   0  0  0  0  0  0  0  0  0  0  0  0
  -21.3103  -11.2466   -6.8956 O   0  0  0  0  0  0  0  0  0  0  0  0
  -29.0662   -7.2421   -5.3256 C   0  0  0  0  0  0  0  0  0  0  0  0
  -28.0286   -6.5896   -4.7887 C   0  0  0  0  0  0  0  0  0  0  0  0
  -28.0355   -5.1501   -4.4518 C   0  0  0  0  0  0  0  0  0  0  0  0
  -27.0530   -4.6704   -3.9027 O   0  0  0  0  0  0  0  0  0  0  0  0
  -29.2904   -4.3676   -4.7396 C   0  0  0  0  0  0  0  0  0  0  0  0
  -30.3152   -5.0165   -5.3136 C   0  0  0  0  0  0  0  0  0  0  0  0
  -30.2784   -6.4452   -5.6845 C   0  0  0  0  0  0  0  0  0  0  0  0
  -31.2315   -6.9726   -6.2529 O   0  0  0  0  0  0  0  0  0  0  0  0
  -29.3453   -3.0349   -4.3035 N   0  0  0  0  0  0  0  0  0  0  0  0
  -29.8852   -2.6967   -2.9835 C   0  0  0  0  0  0  0  0  0  0  0  0
  -28.9555   -1.9298   -5.1082 C   0  0  0  0  0  0  0  0  0  0  0  0
  -28.2105   -2.1180   -6.2836 C   0  0  0  0  0  0  0  0  0  0  0  0
  -27.8704   -1.0435   -7.1134 C   0  0  0  0  0  0  0  0  0  0  0  0
  -28.2484    0.2543   -6.7742 C   0  0  0  0  0  0  0  0  0  0  0  0
  -28.9581    0.4731   -5.6049 C   0  0  0  0  0  0  0  0  0  0  0  0
  -29.3098   -0.6057   -4.7868 C   0  0  0  0  0  0  0  0  0  0  0  0
 18 19  1  0  0  0
 19 17  1  0  0  0
 17 16  1  0  0  0
 16 15  1  0  0  0
 15  3  1  0  0  0
  3  4  1  0  0  0
  3 12  2  0  0  0
  4  5  2  0  0  0
  5  6  1  0  0  0
  5 10  1  0  0  0
  6  7  2  0  0  0
  7  8  1  0  0  0
  8  9  2  0  0  0
  9  1  1  0  0  0
  9 10  1  0  0  0
  1 20  1  0  0  0
  1  2  1  0  0  0
 20 21  2  0  0  0
 20 26  1  0  0  0
 21 22  1  0  0  0
 22 23  2  0  0  0
 22 24  1  0  0  0
 24 28  1  0  0  0
 24 25  2  0  0  0
 28 29  1  0  0  0
 28 30  1  0  0  0
 30 31  1  0  0  0
 30 35  2  0  0  0
 31 32  2  0  0  0
 32 33  1  0  0  0
 33 34  2  0  0  0
 34 35  1  0  0  0
 25 26  1  0  0  0
 26 27  2  0  0  0
 10 11  2  0  0  0
 11 12  1  0  0  0
 12 13  1  0  0  0
 13 14  1  0  0  0
M  END
> <minimizedAffinity>
-7.88076

$$$$
