CHEMBL3973587


 37 41  0  0  0  0  0  0  0  0999 V2000
  -16.9569    2.0651  -15.2089 N   0  0  0  0  0  0  0  0  0  0  0  0
  -18.3978    1.9383  -15.2805 C   0  0  0  0  0  0  0  0  0  0  0  0
  -19.0627    3.1265  -15.5719 C   0  0  0  0  0  0  0  0  0  0  0  0
  -20.3555    3.3295  -15.1378 C   0  0  0  0  0  0  0  0  0  0  0  0
  -21.0873    2.3175  -14.5606 C   0  0  0  0  0  0  0  0  0  0  0  0
  -22.2500    2.7329  -14.0519 N   0  0  0  0  0  0  0  0  0  0  0  0
  -23.0927    1.7834  -13.6399 C   0  0  0  0  0  0  0  0  0  0  0  0
  -22.8228    0.4392  -13.7979 C   0  0  0  0  0  0  0  0  0  0  0  0
  -21.5739    0.0085  -14.2107 N   0  0  0  0  0  0  0  0  0  0  0  0
  -20.6258    0.9825  -14.5569 C   0  0  0  0  0  0  0  0  0  0  0  0
  -19.2067    0.8383  -14.8766 C   0  0  0  0  0  0  0  0  0  0  0  0
  -23.9674   -0.4507  -13.6253 C   0  0  0  0  0  0  0  0  0  0  0  0
  -24.7752   -1.0947  -14.6022 C   0  0  0  0  0  0  0  0  0  0  0  0
  -25.9024   -1.6130  -14.0940 N   0  0  0  0  0  0  0  0  0  0  0  0
  -25.8310   -1.2953  -12.7908 N   0  0  0  0  0  0  0  0  0  0  0  0
  -26.7240   -1.9060  -11.8330 C   0  0  0  0  0  0  0  0  0  0  0  0
  -24.7846   -0.4608  -12.5040 C   0  0  0  0  0  0  0  0  0  0  0  0
  -14.4741    3.4720  -17.6625 C   0  0  0  0  0  0  0  0  0  0  0  0
  -13.8071    2.3139  -18.0669 C   0  0  0  0  0  0  0  0  0  0  0  0
  -14.2144    1.0771  -17.5797 C   0  0  0  0  0  0  0  0  0  0  0  0
  -15.3000    0.9997  -16.6974 C   0  0  0  0  0  0  0  0  0  0  0  0
  -16.0014    2.1339  -16.2579 C   0  0  0  0  0  0  0  0  0  0  0  0
  -15.5733    3.3745  -16.7758 C   0  0  0  0  0  0  0  0  0  0  0  0
  -14.7964    5.3169  -19.1592 C   0  0  0  0  0  0  0  0  0  0  0  0
  -14.1089    4.7420  -18.0440 O   0  0  0  0  0  0  0  0  0  0  0  0
  -13.6205   -0.1264  -17.8518 O   0  0  0  0  0  0  0  0  0  0  0  0
  -13.5603   -0.5262  -19.2163 C   0  0  0  0  0  0  0  0  0  0  0  0
  -16.4854    1.4046  -13.9195 C   0  0  0  0  0  0  0  0  0  0  0  0
  -16.0926   -0.1026  -14.0290 C   0  0  0  0  0  0  0  0  0  0  0  0
  -15.1814   -0.6041  -12.9558 N   0  0  0  0  0  0  0  0  0  0  0  0
  -13.8652   -1.0114  -13.4878 C   0  0  0  0  0  0  0  0  0  0  0  0
  -13.9206   -2.3043  -14.3074 C   0  0  0  0  0  0  0  0  0  0  0  0
  -14.5309   -3.4560  -13.5015 C   0  0  0  0  0  0  0  0  0  0  0  0
  -15.8574   -3.0569  -12.8410 C   0  0  0  0  0  0  0  0  0  0  0  0
  -15.7216   -1.7026  -12.1241 C   0  0  0  0  0  0  0  0  0  0  0  0
  -16.2988   -4.0988  -11.8881 C   0  0  0  0  0  0  0  0  0  0  0  0
  -16.6367   -4.9070  -11.1445 N   0  0  0  0  0  0  0  0  0  0  0  0
 24 25  1  0  0  0
 25 18  1  0  0  0
 18 19  1  0  0  0
 18 23  2  0  0  0
 19 20  2  0  0  0
 20 26  1  0  0  0
 20 21  1  0  0  0
 26 27  1  0  0  0
 21 22  2  0  0  0
 22  1  1  0  0  0
 22 23  1  0  0  0
  1 28  1  0  0  0
  1  2  1  0  0  0
 28 29  1  0  0  0
 29 30  1  0  0  0
 30 31  1  0  0  0
 30 35  1  0  0  0
 31 32  1  0  0  0
 32 33  1  0  0  0
 33 34  1  0  0  0
 34 36  1  0  0  0
 34 35  1  0  0  0
 36 37  3  0  0  0
  2  3  1  0  0  0
  2 11  2  0  0  0
  3  4  2  0  0  0
  4  5  1  0  0  0
  5  6  1  0  0  0
  5 10  2  0  0  0
  6  7  2  0  0  0
  7  8  1  0  0  0
  8 12  1  0  0  0
  8  9  2  0  0  0
 12 13  1  0  0  0
 12 17  2  0  0  0
 13 14  2  0  0  0
 14 15  1  0  0  0
 15 16  1  0  0  0
 15 17  1  0  0  0
  9 10  1  0  0  0
 10 11  1  0  0  0
M  END
> <minimizedAffinity>
-9.43912

$$$$
