CHEMBL1999321


 31 34  0  0  0  0  0  0  0  0999 V2000
  -28.2892   -8.3231   -7.1977 N   0  0  0  0  0  0  0  0  0  0  0  0
  -27.4050   -8.3284   -7.7095 H   0  0  0  0  0  0  0  0  0  0  0  0
  -28.8254  -11.1119   -5.5240 O   0  0  0  0  0  0  0  0  0  0  0  0
  -28.6123   -9.9535   -5.2444 C   0  0  0  0  0  0  0  0  0  0  0  0
  -28.3405   -8.6595   -5.9279 C   0  0  0  0  0  0  0  0  0  0  0  0
  -28.1968   -8.0089   -4.7287 C   0  0  0  0  0  0  0  0  0  0  0  0
  -28.4488   -9.2422   -3.9488 C   0  0  0  0  0  0  0  0  0  0  0  0
  -28.3989   -9.6206   -2.8103 O   0  0  0  0  0  0  0  0  0  0  0  0
  -27.9251   -6.7830   -4.3354 N   0  0  0  0  0  0  0  0  0  0  0  0
  -27.0411   -6.3310   -4.5624 H   0  0  0  0  0  0  0  0  0  0  0  0
  -28.9288   -5.8387   -3.9999 C   0  0  0  0  0  0  0  0  0  0  0  0
  -30.2585   -6.2389   -3.8940 C   0  0  0  0  0  0  0  0  0  0  0  0
  -31.2251   -5.2660   -3.6842 C   0  0  0  0  0  0  0  0  0  0  0  0
  -30.9586   -3.9476   -3.5562 N   0  0  0  0  0  0  0  0  0  0  0  0
  -29.6654   -3.5821   -3.6414 C   0  0  0  0  0  0  0  0  0  0  0  0
  -28.6347   -4.4765   -3.8632 C   0  0  0  0  0  0  0  0  0  0  0  0
  -29.4652   -8.0892   -8.0182 C   0  0  0  0  0  0  0  0  0  0  0  0
  -30.3414   -6.9562   -7.4640 C   0  0  0  0  0  0  0  0  0  0  0  0
  -29.6744   -5.5998   -7.5659 C   0  0  0  0  0  0  0  0  0  0  0  0
  -28.3669   -5.4731   -8.0521 C   0  0  0  0  0  0  0  0  0  0  0  0
  -27.7459   -4.2336   -8.1249 C   0  0  0  0  0  0  0  0  0  0  0  0
  -28.4524   -3.0734   -7.8181 C   0  0  0  0  0  0  0  0  0  0  0  0
  -29.7548   -3.1768   -7.3293 C   0  0  0  0  0  0  0  0  0  0  0  0
  -30.3632   -4.4331   -7.2016 C   0  0  0  0  0  0  0  0  0  0  0  0
  -27.9235   -1.8065   -7.9422 O   0  0  0  0  0  0  0  0  0  0  0  0
  -27.9794   -0.9457   -6.8626 C   0  0  0  0  0  0  0  0  0  0  0  0
  -27.4529   -1.2447   -5.6001 C   0  0  0  0  0  0  0  0  0  0  0  0
  -27.6055   -0.3546   -4.5414 C   0  0  0  0  0  0  0  0  0  0  0  0
  -28.2141    0.8791   -4.7543 C   0  0  0  0  0  0  0  0  0  0  0  0
  -28.6828    1.2121   -6.0316 C   0  0  0  0  0  0  0  0  0  0  0  0
  -28.5720    0.2983   -7.0812 C   0  0  0  0  0  0  0  0  0  0  0  0
  3  4  2  0  0  0
  4  5  1  0  0  0
  4  7  1  0  0  0
  5  1  1  0  0  0
  5  6  2  0  0  0
  1 17  1  0  0  0
  1  2  1  0  0  0
 17 18  1  0  0  0
 18 19  1  0  0  0
 19 20  1  0  0  0
 19 24  2  0  0  0
 20 21  2  0  0  0
 21 22  1  0  0  0
 22 25  1  0  0  0
 22 23  2  0  0  0
 25 26  1  0  0  0
 26 27  1  0  0  0
 26 31  2  0  0  0
 27 28  2  0  0  0
 28 29  1  0  0  0
 29 30  2  0  0  0
 30 31  1  0  0  0
 23 24  1  0  0  0
  6  9  1  0  0  0
  6  7  1  0  0  0
  9 11  1  0  0  0
  9 10  1  0  0  0
 11 12  1  0  0  0
 11 16  2  0  0  0
 12 13  2  0  0  0
 13 14  1  0  0  0
 14 15  2  0  0  0
 15 16  1  0  0  0
  7  8  2  0  0  0
M  END
> <minimizedAffinity>
-7.92301

$$$$
