CHEMBL377081


 32 36  0  0  0  0  0  0  0  0999 V2000
  -28.2303   -6.4332   -6.3365 O   0  0  0  0  0  0  0  0  0  0  0  0
  -28.5416   -6.5657   -5.1613 C   0  0  0  0  0  0  0  0  0  0  0  0
  -28.0092   -7.4743   -4.2623 N   0  0  0  0  0  0  0  0  0  0  0  0
  -28.3752   -7.4619   -3.3198 H   0  0  0  0  0  0  0  0  0  0  0  0
  -27.0113   -8.4416   -4.5082 C   0  0  0  0  0  0  0  0  0  0  0  0
  -25.7581   -8.4599   -3.8984 C   0  0  0  0  0  0  0  0  0  0  0  0
  -24.8118   -9.4462   -4.2280 C   0  0  0  0  0  0  0  0  0  0  0  0
  -25.0866  -10.4345   -5.1763 C   0  0  0  0  0  0  0  0  0  0  0  0
  -26.3629  -10.4168   -5.7583 C   0  0  0  0  0  0  0  0  0  0  0  0
  -27.3102   -9.4385   -5.4366 C   0  0  0  0  0  0  0  0  0  0  0  0
  -24.1856  -11.4196   -5.5502 N   0  0  0  0  0  0  0  0  0  0  0  0
  -23.3272  -12.1140   -4.5747 C   0  0  0  0  0  0  0  0  0  0  0  0
  -21.8761  -11.6101   -4.6182 C   0  0  0  0  0  0  0  0  0  0  0  0
  -21.3440  -11.6120   -5.9527 O   0  0  0  0  0  0  0  0  0  0  0  0
  -22.1459  -10.7740   -6.8001 C   0  0  0  0  0  0  0  0  0  0  0  0
  -23.5877  -11.3014   -6.8966 C   0  0  0  0  0  0  0  0  0  0  0  0
  -29.5805   -5.6516   -4.5936 C   0  0  0  0  0  0  0  0  0  0  0  0
  -30.8640   -6.1873   -4.3731 C   0  0  0  0  0  0  0  0  0  0  0  0
  -31.8557   -5.4315   -3.7522 C   0  0  0  0  0  0  0  0  0  0  0  0
  -31.5702   -4.1432   -3.3183 C   0  0  0  0  0  0  0  0  0  0  0  0
  -30.3021   -3.6010   -3.5306 C   0  0  0  0  0  0  0  0  0  0  0  0
  -29.2865   -4.3317   -4.1855 C   0  0  0  0  0  0  0  0  0  0  0  0
  -27.9610   -3.6389   -4.4218 C   0  0  0  0  0  0  0  0  0  0  0  0
  -27.9892   -2.7526   -5.5884 N   0  0  0  0  0  0  0  0  0  0  0  0
  -28.0820   -3.1906   -6.8898 C   0  0  0  0  0  0  0  0  0  0  0  0
  -28.2239   -2.0931   -7.7094 C   0  0  0  0  0  0  0  0  0  0  0  0
  -28.2229   -0.9364   -6.8818 C   0  0  0  0  0  0  0  0  0  0  0  0
  -28.3570    0.4346   -7.1338 C   0  0  0  0  0  0  0  0  0  0  0  0
  -28.3270    1.3337   -6.1209 N   0  0  0  0  0  0  0  0  0  0  0  0
  -28.1791    0.8783   -4.8593 C   0  0  0  0  0  0  0  0  0  0  0  0
  -28.0575   -0.4547   -4.5051 C   0  0  0  0  0  0  0  0  0  0  0  0
  -28.0723   -1.3712   -5.5601 C   0  0  0  0  0  0  0  0  0  0  0  0
  1  2  2  0  0  0
  2  3  1  0  0  0
  2 17  1  0  0  0
  3  5  1  0  0  0
  3  4  1  0  0  0
  5  6  1  0  0  0
  5 10  2  0  0  0
  6  7  2  0  0  0
  7  8  1  0  0  0
  8 11  1  0  0  0
  8  9  2  0  0  0
 11 12  1  0  0  0
 11 16  1  0  0  0
 12 13  1  0  0  0
 13 14  1  0  0  0
 14 15  1  0  0  0
 15 16  1  0  0  0
  9 10  1  0  0  0
 17 18  1  0  0  0
 17 22  2  0  0  0
 18 19  2  0  0  0
 19 20  1  0  0  0
 20 21  2  0  0  0
 21 22  1  0  0  0
 22 23  1  0  0  0
 23 24  1  0  0  0
 24 25  1  0  0  0
 24 32  1  0  0  0
 25 26  2  0  0  0
 26 27  1  0  0  0
 27 28  1  0  0  0
 27 32  2  0  0  0
 28 29  2  0  0  0
 29 30  1  0  0  0
 30 31  2  0  0  0
 31 32  1  0  0  0
M  END
> <minimizedAffinity>
-9.20994

$$$$
