CHEMBL2022369


 41 46  0  0  0  0  0  0  0  0999 V2000
  -16.3397   -4.5646  -12.0046 C   0  0  0  0  0  0  0  0  0  0  0  0
  -15.5951   -3.8054  -13.0563 C   0  0  0  0  0  0  0  0  0  0  0  0
  -15.0168   -4.4454  -14.0865 C   0  0  0  0  0  0  0  0  0  0  0  0
  -14.2622   -3.7205  -14.9813 N   0  0  0  0  0  0  0  0  0  0  0  0
  -13.5380   -4.0961  -16.0873 C   0  0  0  0  0  0  0  0  0  0  0  0
  -12.8367   -2.9606  -16.4429 C   0  0  0  0  0  0  0  0  0  0  0  0
  -13.1767   -1.8792  -15.6377 N   0  0  0  0  0  0  0  0  0  0  0  0
  -14.0467   -2.3850  -14.7794 C   0  0  0  0  0  0  0  0  0  0  0  0
  -14.7647   -1.7095  -13.7011 C   0  0  0  0  0  0  0  0  0  0  0  0
  -15.5165   -2.4349  -12.8919 N   0  0  0  0  0  0  0  0  0  0  0  0
  -13.5029   -5.4491  -16.6888 C   0  0  0  0  0  0  0  0  0  0  0  0
  -14.0902   -5.8936  -17.8932 C   0  0  0  0  0  0  0  0  0  0  0  0
  -13.9791   -7.2129  -18.0585 N   0  0  0  0  0  0  0  0  0  0  0  0
  -13.2964   -7.6104  -16.9664 N   0  0  0  0  0  0  0  0  0  0  0  0
  -12.9084   -6.5703  -16.1615 C   0  0  0  0  0  0  0  0  0  0  0  0
  -13.0481   -9.0240  -16.7726 C   0  0  0  0  0  0  0  0  0  0  0  0
  -13.1002   -9.4099  -15.3136 C   0  0  0  0  0  0  0  0  0  0  0  0
  -12.5360  -10.4198  -14.8958 O   0  0  0  0  0  0  0  0  0  0  0  0
  -13.8314   -8.5775  -14.4893 N   0  0  0  0  0  0  0  0  0  0  0  0
  -14.0461   -7.6345  -14.7954 H   0  0  0  0  0  0  0  0  0  0  0  0
  -13.8968   -8.8740  -13.0741 C   0  0  0  0  0  0  0  0  0  0  0  0
  -13.2385   -7.7912  -12.2818 C   0  0  0  0  0  0  0  0  0  0  0  0
  -13.8040   -6.9326  -11.3589 C   0  0  0  0  0  0  0  0  0  0  0  0
  -12.8381   -6.0827  -10.7419 C   0  0  0  0  0  0  0  0  0  0  0  0
  -11.5686   -6.3151  -11.2203 C   0  0  0  0  0  0  0  0  0  0  0  0
  -11.5469   -7.5378  -12.4145 S   0  0  0  0  0  0  0  0  0  0  0  0
  -14.6875   -0.3414  -13.5002 N   0  0  0  0  0  0  0  0  0  0  0  0
  -13.8052   -0.0261  -13.1077 H   0  0  0  0  0  0  0  0  0  0  0  0
  -15.5765    0.5933  -13.9365 C   0  0  0  0  0  0  0  0  0  0  0  0
  -16.7680    1.0100  -13.3625 C   0  0  0  0  0  0  0  0  0  0  0  0
  -17.4928    1.9000  -14.2270 C   0  0  0  0  0  0  0  0  0  0  0  0
  -16.8523    2.2364  -15.3523 N   0  0  0  0  0  0  0  0  0  0  0  0
  -15.4132    1.4215  -15.4268 S   0  0  0  0  0  0  0  0  0  0  0  0
  -18.9301    2.3483  -14.0486 C   0  0  0  0  0  0  0  0  0  0  0  0
  -19.8351    2.0411  -15.1772 N   0  0  0  0  0  0  0  0  0  0  0  0
  -20.7713    3.1600  -15.4154 C   0  0  0  0  0  0  0  0  0  0  0  0
  -21.8762    3.3188  -14.3603 C   0  0  0  0  0  0  0  0  0  0  0  0
  -22.6034    2.0099  -14.0600 C   0  0  0  0  0  0  0  0  0  0  0  0
  -21.6302    0.8400  -13.8734 C   0  0  0  0  0  0  0  0  0  0  0  0
  -22.3918   -0.4822  -13.7882 C   0  0  0  0  0  0  0  0  0  0  0  0
  -20.6061    0.7983  -15.0189 C   0  0  0  0  0  0  0  0  0  0  0  0
  1  2  1  0  0  0
  2  3  2  0  0  0
  2 10  1  0  0  0
  3  4  1  0  0  0
  4  5  1  0  0  0
  4  8  1  0  0  0
  5 11  1  0  0  0
  5  6  2  0  0  0
 11 12  1  0  0  0
 11 15  2  0  0  0
 12 13  2  0  0  0
 13 14  1  0  0  0
 14 16  1  0  0  0
 14 15  1  0  0  0
 16 17  1  0  0  0
 17 18  2  0  0  0
 17 19  1  0  0  0
 19 21  1  0  0  0
 19 20  1  0  0  0
 21 22  1  0  0  0
 22 23  2  0  0  0
 22 26  1  0  0  0
 23 24  1  0  0  0
 24 25  2  0  0  0
 25 26  1  0  0  0
  6  7  1  0  0  0
  7  8  2  0  0  0
  8  9  1  0  0  0
  9 27  1  0  0  0
  9 10  2  0  0  0
 27 29  1  0  0  0
 27 28  1  0  0  0
 29 30  2  0  0  0
 29 33  1  0  0  0
 30 31  1  0  0  0
 31 34  1  0  0  0
 31 32  2  0  0  0
 34 35  1  0  0  0
 35 36  1  0  0  0
 35 41  1  0  0  0
 36 37  1  0  0  0
 37 38  1  0  0  0
 38 39  1  0  0  0
 39 40  1  0  0  0
 39 41  1  0  0  0
 32 33  1  0  0  0
M  END
> <minimizedAffinity>
-8.33857

$$$$
