CHEMBL3894099


 34 37  0  0  0  0  0  0  0  0999 V2000
  -15.1785   -2.5922  -12.4942 C   0  0  0  0  0  0  0  0  0  0  0  0
  -15.8798   -2.8598  -11.3176 C   0  0  0  0  0  0  0  0  0  0  0  0
  -15.2386   -3.4677  -10.2340 C   0  0  0  0  0  0  0  0  0  0  0  0
  -13.9070   -3.8811  -10.3319 C   0  0  0  0  0  0  0  0  0  0  0  0
  -13.2357   -3.7712  -11.5545 C   0  0  0  0  0  0  0  0  0  0  0  0
  -13.8424   -3.0083  -12.5856 C   0  0  0  0  0  0  0  0  0  0  0  0
  -12.1872   -4.8202  -11.9287 C   0  0  0  0  0  0  0  0  0  0  0  0
  -11.4296   -4.6591  -13.1068 C   0  0  0  0  0  0  0  0  0  0  0  0
  -12.3461   -5.1459  -14.1071 C   0  0  0  0  0  0  0  0  0  0  0  0
  -12.6443   -4.7934  -15.4261 C   0  0  0  0  0  0  0  0  0  0  0  0
  -13.7247   -5.4158  -16.0612 C   0  0  0  0  0  0  0  0  0  0  0  0
  -14.4547   -6.4240  -15.4280 C   0  0  0  0  0  0  0  0  0  0  0  0
  -14.1554   -6.8204  -14.1211 C   0  0  0  0  0  0  0  0  0  0  0  0
  -13.1426   -6.1109  -13.4713 C   0  0  0  0  0  0  0  0  0  0  0  0
  -12.6392   -6.1544  -12.1786 N   0  0  0  0  0  0  0  0  0  0  0  0
  -12.6546   -7.2621  -11.3250 C   0  0  0  0  0  0  0  0  0  0  0  0
  -11.5120   -7.3674  -10.5861 N   0  0  0  0  0  0  0  0  0  0  0  0
  -13.5345   -8.1148  -11.3832 O   0  0  0  0  0  0  0  0  0  0  0  0
  -10.6860   -6.8600  -10.8823 H   0  0  0  0  0  0  0  0  0  0  0  0
  -11.3481   -8.2953  -10.2165 H   0  0  0  0  0  0  0  0  0  0  0  0
  -16.8942   -0.2819  -14.7566 N   0  0  0  0  0  0  0  0  0  0  0  0
  -16.1810   -0.6155  -13.6105 C   0  0  0  0  0  0  0  0  0  0  0  0
  -15.8298    0.1796  -12.7409 O   0  0  0  0  0  0  0  0  0  0  0  0
  -15.8841   -1.9728  -13.5684 N   0  0  0  0  0  0  0  0  0  0  0  0
  -17.3543   -1.0379  -15.2352 H   0  0  0  0  0  0  0  0  0  0  0  0
  -15.7841   -2.4135  -14.4685 H   0  0  0  0  0  0  0  0  0  0  0  0
  -18.9753    2.7846  -15.3286 C   0  0  0  0  0  0  0  0  0  0  0  0
  -18.0252    3.6680  -15.8477 C   0  0  0  0  0  0  0  0  0  0  0  0
  -16.7160    3.2419  -16.0406 C   0  0  0  0  0  0  0  0  0  0  0  0
  -16.3432    1.9432  -15.7059 C   0  0  0  0  0  0  0  0  0  0  0  0
  -17.2553    1.0407  -15.1573 C   0  0  0  0  0  0  0  0  0  0  0  0
  -18.5953    1.4625  -14.9995 C   0  0  0  0  0  0  0  0  0  0  0  0
  -21.2609    2.2742  -14.3643 C   0  0  0  0  0  0  0  0  0  0  0  0
  -20.3911    3.2706  -15.1216 C   0  0  0  0  0  0  0  0  0  0  0  0
 33 34  1  0  0  0
 34 27  1  0  0  0
 27 28  1  0  0  0
 27 32  2  0  0  0
 28 29  2  0  0  0
 29 30  1  0  0  0
 30 31  2  0  0  0
 31 21  1  0  0  0
 31 32  1  0  0  0
 21 22  1  0  0  0
 21 25  1  0  0  0
 22 23  2  0  0  0
 22 24  1  0  0  0
 24  1  1  0  0  0
 24 26  1  0  0  0
  1  2  1  0  0  0
  1  6  2  0  0  0
  2  3  2  0  0  0
  3  4  1  0  0  0
  4  5  2  0  0  0
  5  7  1  0  0  0
  5  6  1  0  0  0
  7  8  2  0  0  0
  7 15  1  0  0  0
  8  9  1  0  0  0
  9 10  1  0  0  0
  9 14  2  0  0  0
 10 11  2  0  0  0
 11 12  1  0  0  0
 12 13  2  0  0  0
 13 14  1  0  0  0
 14 15  1  0  0  0
 15 16  1  0  0  0
 16 17  1  0  0  0
 16 18  2  0  0  0
 17 19  1  0  0  0
 17 20  1  0  0  0
M  END
> <minimizedAffinity>
-9.41637

$$$$
