CHEMBL522601


 33 37  0  0  0  0  0  0  0  0999 V2000
  -22.7825    0.2127  -14.2794 C   0  0  0  0  0  0  0  0  0  0  0  0
  -21.5304   -0.2328  -14.6705 C   0  0  0  0  0  0  0  0  0  0  0  0
  -20.6462    0.8760  -14.7057 C   0  0  0  0  0  0  0  0  0  0  0  0
  -19.3053    1.0446  -15.0863 C   0  0  0  0  0  0  0  0  0  0  0  0
  -18.7317    2.3167  -15.0195 C   0  0  0  0  0  0  0  0  0  0  0  0
  -19.4783    3.4156  -14.5962 C   0  0  0  0  0  0  0  0  0  0  0  0
  -20.8135    3.2694  -14.2096 C   0  0  0  0  0  0  0  0  0  0  0  0
  -21.3655    1.9871  -14.2836 C   0  0  0  0  0  0  0  0  0  0  0  0
  -22.6455    1.5601  -14.0264 N   0  0  0  0  0  0  0  0  0  0  0  0
  -23.4143    2.1827  -13.8046 H   0  0  0  0  0  0  0  0  0  0  0  0
  -22.8427   -0.9619  -11.3145 O   0  0  0  0  0  0  0  0  0  0  0  0
  -23.9739   -1.2273  -11.6700 C   0  0  0  0  0  0  0  0  0  0  0  0
  -24.9403   -1.7868  -10.8683 N   0  0  0  0  0  0  0  0  0  0  0  0
  -26.1415   -2.1211  -11.5807 C   0  0  0  0  0  0  0  0  0  0  0  0
  -25.8351   -1.6583  -12.9656 C   0  0  0  0  0  0  0  0  0  0  0  0
  -26.6417   -1.7217  -14.0876 C   0  0  0  0  0  0  0  0  0  0  0  0
  -26.1493   -1.1927  -15.2794 C   0  0  0  0  0  0  0  0  0  0  0  0
  -24.8787   -0.5900  -15.3262 C   0  0  0  0  0  0  0  0  0  0  0  0
  -24.0530   -0.5126  -14.1886 C   0  0  0  0  0  0  0  0  0  0  0  0
  -24.5541   -1.0854  -13.0243 C   0  0  0  0  0  0  0  0  0  0  0  0
  -24.7510   -2.0043   -9.8974 H   0  0  0  0  0  0  0  0  0  0  0  0
  -17.4313    2.3775  -15.4356 O   0  0  0  0  0  0  0  0  0  0  0  0
  -16.9752    3.6690  -15.8329 C   0  0  0  0  0  0  0  0  0  0  0  0
  -15.4719    3.5571  -16.0251 C   0  0  0  0  0  0  0  0  0  0  0  0
  -14.9779    2.1461  -15.7117 C   0  0  0  0  0  0  0  0  0  0  0  0
  -13.6919    2.1379  -14.9942 N   0  0  0  0  0  0  0  0  0  0  0  0
  -13.7322    1.2902  -13.7925 C   0  0  0  0  0  0  0  0  0  0  0  0
  -12.3701    1.2378  -13.1067 C   0  0  0  0  0  0  0  0  0  0  0  0
  -11.8492    2.6282  -12.7737 C   0  0  0  0  0  0  0  0  0  0  0  0
  -12.5775    3.1841  -11.6782 O   0  0  0  0  0  0  0  0  0  0  0  0
  -11.9218    3.5496  -13.9869 C   0  0  0  0  0  0  0  0  0  0  0  0
  -13.2969    3.5148  -14.6544 C   0  0  0  0  0  0  0  0  0  0  0  0
  -13.5112    3.2634  -11.9337 H   0  0  0  0  0  0  0  0  0  0  0  0
 11 12  2  0  0  0
 12 13  1  0  0  0
 12 20  1  0  0  0
 13 14  1  0  0  0
 13 21  1  0  0  0
 14 15  1  0  0  0
 15 16  1  0  0  0
 15 20  2  0  0  0
 16 17  2  0  0  0
 17 18  1  0  0  0
 18 19  2  0  0  0
 19  1  1  0  0  0
 19 20  1  0  0  0
  1  2  2  0  0  0
  1  9  1  0  0  0
  2  3  1  0  0  0
  3  4  1  0  0  0
  3  8  2  0  0  0
  4  5  2  0  0  0
  5 22  1  0  0  0
  5  6  1  0  0  0
 22 23  1  0  0  0
 23 24  1  0  0  0
 24 25  1  0  0  0
 25 26  1  0  0  0
 26 27  1  0  0  0
 26 32  1  0  0  0
 27 28  1  0  0  0
 28 29  1  0  0  0
 29 30  1  0  0  0
 29 31  1  0  0  0
 30 33  1  0  0  0
 31 32  1  0  0  0
  6  7  2  0  0  0
  7  8  1  0  0  0
  8  9  1  0  0  0
  9 10  1  0  0  0
M  END
> <minimizedAffinity>
-9.74888

$$$$
