CHEMBL432548


 30 34  0  0  0  0  0  0  0  0999 V2000
  -27.6357    9.8810  -16.0418 O   0  0  0  0  0  0  0  0  0  0  0  0
  -26.6874   10.6453  -15.9278 C   0  0  0  0  0  0  0  0  0  0  0  0
  -25.5951   10.6041  -16.9342 C   0  0  0  0  0  0  0  0  0  0  0  0
  -24.5765   11.4723  -16.8481 C   0  0  0  0  0  0  0  0  0  0  0  0
  -24.5495   12.4774  -15.8097 C   0  0  0  0  0  0  0  0  0  0  0  0
  -25.4803   12.4732  -14.8600 C   0  0  0  0  0  0  0  0  0  0  0  0
  -26.5101   11.5532  -14.8793 N   0  0  0  0  0  0  0  0  0  0  0  0
  -23.4469   11.3277  -17.7621 C   0  0  0  0  0  0  0  0  0  0  0  0
  -22.2293   10.8764  -17.2342 C   0  0  0  0  0  0  0  0  0  0  0  0
  -21.0695   10.8843  -18.0001 C   0  0  0  0  0  0  0  0  0  0  0  0
  -21.1754   11.4273  -19.2861 C   0  0  0  0  0  0  0  0  0  0  0  0
  -22.3669   11.9259  -19.8085 C   0  0  0  0  0  0  0  0  0  0  0  0
  -23.5470   11.8141  -19.0708 C   0  0  0  0  0  0  0  0  0  0  0  0
  -22.1641   12.5523  -21.0091 N   0  0  0  0  0  0  0  0  0  0  0  0
  -20.8682   12.4753  -21.2089 C   0  0  0  0  0  0  0  0  0  0  0  0
  -20.2428   11.6946  -20.2650 N   0  0  0  0  0  0  0  0  0  0  0  0
  -18.9218   11.2167  -20.3462 C   0  0  0  0  0  0  0  0  0  0  0  0
  -17.8731   12.0190  -19.8919 C   0  0  0  0  0  0  0  0  0  0  0  0
  -16.5603   11.6269  -20.1321 C   0  0  0  0  0  0  0  0  0  0  0  0
  -16.3012   10.4516  -20.8375 C   0  0  0  0  0  0  0  0  0  0  0  0
  -17.3524    9.6331  -21.2564 C   0  0  0  0  0  0  0  0  0  0  0  0
  -18.6702   10.0028  -20.9971 C   0  0  0  0  0  0  0  0  0  0  0  0
  -27.5201   11.6027  -13.8307 C   0  0  0  0  0  0  0  0  0  0  0  0
  -28.6550   12.6103  -14.1138 C   0  0  0  0  0  0  0  0  0  0  0  0
  -29.9500   12.1492  -13.5736 N   0  0  0  0  0  0  0  0  0  0  0  0
  -31.0730   12.6590  -14.3782 C   0  0  0  0  0  0  0  0  0  0  0  0
  -32.4070   12.2551  -13.7592 C   0  0  0  0  0  0  0  0  0  0  0  0
  -32.5098   10.7438  -13.6177 C   0  0  0  0  0  0  0  0  0  0  0  0
  -31.2933   10.1944  -12.8806 C   0  0  0  0  0  0  0  0  0  0  0  0
  -29.9875   10.6786  -13.5158 C   0  0  0  0  0  0  0  0  0  0  0  0
  1  2  2  0  0  0
  2  3  1  0  0  0
  2  7  1  0  0  0
  3  4  2  0  0  0
  4  8  1  0  0  0
  4  5  1  0  0  0
  8  9  1  0  0  0
  8 13  2  0  0  0
  9 10  2  0  0  0
 10 11  1  0  0  0
 11 12  2  0  0  0
 11 16  1  0  0  0
 12 13  1  0  0  0
 12 14  1  0  0  0
 14 15  2  0  0  0
 15 16  1  0  0  0
 16 17  1  0  0  0
 17 18  1  0  0  0
 17 22  2  0  0  0
 18 19  2  0  0  0
 19 20  1  0  0  0
 20 21  2  0  0  0
 21 22  1  0  0  0
  5  6  2  0  0  0
  6  7  1  0  0  0
  7 23  1  0  0  0
 23 24  1  0  0  0
 24 25  1  0  0  0
 25 26  1  0  0  0
 25 30  1  0  0  0
 26 27  1  0  0  0
 27 28  1  0  0  0
 28 29  1  0  0  0
 29 30  1  0  0  0
M  END
> <minimizedAffinity>
-6.39223

$$$$
