CHEMBL3297899


 22 24  0  0  0  0  0  0  0  0999 V2000
  -29.9407   -5.3664   -5.1631 N   0  0  0  0  0  0  0  0  0  0  0  0
  -30.0235   -6.7051   -5.5898 C   0  0  0  0  0  0  0  0  0  0  0  0
  -31.1144   -7.1582   -6.2811 N   0  0  0  0  0  0  0  0  0  0  0  0
  -31.1318   -8.4156   -6.7699 C   0  0  0  0  0  0  0  0  0  0  0  0
  -32.3521   -8.8122   -7.5560 C   0  0  0  0  0  0  0  0  0  0  0  0
  -30.1745   -9.3462   -6.6629 N   0  0  0  0  0  0  0  0  0  0  0  0
  -29.1393   -8.9016   -5.9359 C   0  0  0  0  0  0  0  0  0  0  0  0
  -28.0111   -9.6462   -5.6929 O   0  0  0  0  0  0  0  0  0  0  0  0
  -27.1818   -8.8811   -4.9259 C   0  0  0  0  0  0  0  0  0  0  0  0
  -25.8527   -9.4061   -4.5608 C   0  0  0  0  0  0  0  0  0  0  0  0
  -27.7816   -7.6847   -4.6322 C   0  0  0  0  0  0  0  0  0  0  0  0
  -29.0061   -7.6524   -5.3543 C   0  0  0  0  0  0  0  0  0  0  0  0
  -29.3916   -4.2950   -5.9123 C   0  0  0  0  0  0  0  0  0  0  0  0
  -28.6927   -3.2445   -5.3179 C   0  0  0  0  0  0  0  0  0  0  0  0
  -27.9974   -2.3008   -6.0888 C   0  0  0  0  0  0  0  0  0  0  0  0
  -27.9797   -2.3925   -7.4777 C   0  0  0  0  0  0  0  0  0  0  0  0
  -28.6910   -3.4178   -8.0926 C   0  0  0  0  0  0  0  0  0  0  0  0
  -29.4208   -4.3313   -7.3216 C   0  0  0  0  0  0  0  0  0  0  0  0
  -27.3116   -1.5628   -8.3334 O   0  0  0  0  0  0  0  0  0  0  0  0
  -27.2777   -1.9552   -9.6995 C   0  0  0  0  0  0  0  0  0  0  0  0
  -31.8032   -4.5769   -3.7147 C   0  0  0  0  0  0  0  0  0  0  0  0
  -30.3730   -5.1074   -3.7802 C   0  0  0  0  0  0  0  0  0  0  0  0
 21 22  1  0  0  0
 22  1  1  0  0  0
  1 13  1  0  0  0
  1  2  1  0  0  0
 13 14  1  0  0  0
 13 18  2  0  0  0
 14 15  2  0  0  0
 15 16  1  0  0  0
 16 19  1  0  0  0
 16 17  2  0  0  0
 19 20  1  0  0  0
 17 18  1  0  0  0
  2  3  1  0  0  0
  2 12  2  0  0  0
  3  4  2  0  0  0
  4  5  1  0  0  0
  4  6  1  0  0  0
  6  7  2  0  0  0
  7  8  1  0  0  0
  7 12  1  0  0  0
  8  9  1  0  0  0
  9 10  1  0  0  0
  9 11  2  0  0  0
 11 12  1  0  0  0
M  END
> <minimizedAffinity>
-7.21748

$$$$
