CHEMBL2180881


 30 33  0  0  0  0  0  0  0  0999 V2000
  -14.9557   -5.0459  -12.5744 C   0  0  0  0  0  0  0  0  0  0  0  0
  -14.4637   -3.9508  -11.9803 C   0  0  0  0  0  0  0  0  0  0  0  0
  -15.5521   -3.3746  -11.1661 C   0  0  0  0  0  0  0  0  0  0  0  0
  -15.5243   -2.3288  -10.5456 O   0  0  0  0  0  0  0  0  0  0  0  0
  -16.6167   -4.2042  -11.2829 N   0  0  0  0  0  0  0  0  0  0  0  0
  -16.3579   -5.1971  -12.1601 C   0  0  0  0  0  0  0  0  0  0  0  0
  -17.1414   -6.0357  -12.5614 O   0  0  0  0  0  0  0  0  0  0  0  0
  -17.5151   -4.0312  -10.8695 H   0  0  0  0  0  0  0  0  0  0  0  0
  -13.1701   -3.3918  -12.0988 C   0  0  0  0  0  0  0  0  0  0  0  0
  -12.0876   -3.7568  -11.3252 C   0  0  0  0  0  0  0  0  0  0  0  0
  -11.0256   -2.9698  -11.6952 N   0  0  0  0  0  0  0  0  0  0  0  0
  -11.4094   -2.0963  -12.6853 C   0  0  0  0  0  0  0  0  0  0  0  0
  -10.6978   -1.1093  -13.3649 C   0  0  0  0  0  0  0  0  0  0  0  0
  -11.4122   -0.3922  -14.3165 C   0  0  0  0  0  0  0  0  0  0  0  0
  -12.7522   -0.6837  -14.5233 C   0  0  0  0  0  0  0  0  0  0  0  0
  -13.4657   -1.6323  -13.8712 N   0  0  0  0  0  0  0  0  0  0  0  0
  -12.7542   -2.3370  -12.9530 C   0  0  0  0  0  0  0  0  0  0  0  0
  -10.0993   -3.0134  -11.2934 H   0  0  0  0  0  0  0  0  0  0  0  0
  -13.9356   -6.8496  -15.7059 C   0  0  0  0  0  0  0  0  0  0  0  0
  -14.5283   -5.9315  -14.8292 C   0  0  0  0  0  0  0  0  0  0  0  0
  -14.2227   -5.9312  -13.4677 C   0  0  0  0  0  0  0  0  0  0  0  0
  -13.3205   -6.8633  -12.9609 C   0  0  0  0  0  0  0  0  0  0  0  0
  -12.7269   -7.7994  -13.8125 C   0  0  0  0  0  0  0  0  0  0  0  0
  -12.9868   -7.7644  -15.2019 C   0  0  0  0  0  0  0  0  0  0  0  0
  -13.7514   -5.9324  -17.9031 C   0  0  0  0  0  0  0  0  0  0  0  0
  -14.2848   -6.9248  -17.0313 O   0  0  0  0  0  0  0  0  0  0  0  0
  -11.8607   -8.7644  -13.3494 O   0  0  0  0  0  0  0  0  0  0  0  0
  -12.4507   -9.7617  -12.5185 C   0  0  0  0  0  0  0  0  0  0  0  0
  -12.3301   -8.7222  -15.9415 O   0  0  0  0  0  0  0  0  0  0  0  0
  -13.0759   -9.8776  -16.3061 C   0  0  0  0  0  0  0  0  0  0  0  0
 25 26  1  0  0  0
 26 19  1  0  0  0
 19 20  1  0  0  0
 19 24  2  0  0  0
 20 21  2  0  0  0
 21  1  1  0  0  0
 21 22  1  0  0  0
  1  2  2  0  0  0
  1  6  1  0  0  0
  2  9  1  0  0  0
  2  3  1  0  0  0
  9 10  2  0  0  0
  9 17  1  0  0  0
 10 11  1  0  0  0
 11 12  1  0  0  0
 11 18  1  0  0  0
 12 13  1  0  0  0
 12 17  2  0  0  0
 13 14  2  0  0  0
 14 15  1  0  0  0
 15 16  2  0  0  0
 16 17  1  0  0  0
  3  4  2  0  0  0
  3  5  1  0  0  0
  5  6  1  0  0  0
  5  8  1  0  0  0
  6  7  2  0  0  0
 22 23  2  0  0  0
 23 27  1  0  0  0
 23 24  1  0  0  0
 27 28  1  0  0  0
 24 29  1  0  0  0
 29 30  1  0  0  0
M  END
> <minimizedAffinity>
-6.36734

$$$$
