CHEMBL422564


 32 36  0  0  0  0  0  0  0  0999 V2000
  -27.8670   -8.8108   -5.5904 C   0  0  0  0  0  0  0  0  0  0  0  0
  -27.7716   -9.6576   -4.5515 N   0  0  0  0  0  0  0  0  0  0  0  0
  -28.3793   -9.2793   -3.4237 C   0  0  0  0  0  0  0  0  0  0  0  0
  -29.0764   -8.1511   -3.2382 N   0  0  0  0  0  0  0  0  0  0  0  0
  -29.1935   -7.3366   -4.2927 C   0  0  0  0  0  0  0  0  0  0  0  0
  -29.8647   -6.1293   -4.1482 C   0  0  0  0  0  0  0  0  0  0  0  0
  -30.0307   -5.2335   -5.2118 C   0  0  0  0  0  0  0  0  0  0  0  0
  -29.5286   -5.5600   -6.4642 C   0  0  0  0  0  0  0  0  0  0  0  0
  -28.8251   -6.7512   -6.6279 C   0  0  0  0  0  0  0  0  0  0  0  0
  -28.6388   -7.6389   -5.5408 C   0  0  0  0  0  0  0  0  0  0  0  0
  -27.1328   -9.0907   -6.7626 N   0  0  0  0  0  0  0  0  0  0  0  0
  -26.9522   -8.2421   -7.2895 H   0  0  0  0  0  0  0  0  0  0  0  0
  -25.0317  -11.5078   -6.3385 Cl  0  0  0  0  0  0  0  0  0  0  0  0
  -26.3174  -11.3597   -7.4915 C   0  0  0  0  0  0  0  0  0  0  0  0
  -26.3970  -12.4112   -8.4333 C   0  0  0  0  0  0  0  0  0  0  0  0
  -27.3067  -12.3671   -9.4892 C   0  0  0  0  0  0  0  0  0  0  0  0
  -28.1312  -11.2711   -9.5656 C   0  0  0  0  0  0  0  0  0  0  0  0
  -28.0664  -10.2477   -8.6455 C   0  0  0  0  0  0  0  0  0  0  0  0
  -27.1754  -10.2402   -7.5742 C   0  0  0  0  0  0  0  0  0  0  0  0
  -28.9639   -9.2532   -8.9283 O   0  0  0  0  0  0  0  0  0  0  0  0
  -29.6755   -9.8405  -10.0380 C   0  0  0  0  0  0  0  0  0  0  0  0
  -29.0692  -11.0531  -10.5250 O   0  0  0  0  0  0  0  0  0  0  0  0
  -30.6907   -4.0808   -4.8980 O   0  0  0  0  0  0  0  0  0  0  0  0
  -30.8635   -3.7778   -3.5104 C   0  0  0  0  0  0  0  0  0  0  0  0
  -29.8182   -2.7260   -3.1538 C   0  0  0  0  0  0  0  0  0  0  0  0
  -29.5957   -1.7203   -4.2855 C   0  0  0  0  0  0  0  0  0  0  0  0
  -28.1715   -1.4653   -4.5515 N   0  0  0  0  0  0  0  0  0  0  0  0
  -27.9437   -0.0831   -5.0310 C   0  0  0  0  0  0  0  0  0  0  0  0
  -28.3562    0.1425   -6.4936 C   0  0  0  0  0  0  0  0  0  0  0  0
  -27.6908   -0.7751   -7.3730 O   0  0  0  0  0  0  0  0  0  0  0  0
  -27.9520   -2.1306   -6.9878 C   0  0  0  0  0  0  0  0  0  0  0  0
  -27.5507   -2.3903   -5.5256 C   0  0  0  0  0  0  0  0  0  0  0  0
 13 14  1  0  0  0
 14 15  1  0  0  0
 14 19  2  0  0  0
 15 16  2  0  0  0
 16 17  1  0  0  0
 17 18  2  0  0  0
 17 22  1  0  0  0
 18 19  1  0  0  0
 18 20  1  0  0  0
 19 11  1  0  0  0
 11  1  1  0  0  0
 11 12  1  0  0  0
  1  2  1  0  0  0
  1 10  2  0  0  0
  2  3  2  0  0  0
  3  4  1  0  0  0
  4  5  2  0  0  0
  5  6  1  0  0  0
  5 10  1  0  0  0
  6  7  2  0  0  0
  7 23  1  0  0  0
  7  8  1  0  0  0
 23 24  1  0  0  0
 24 25  1  0  0  0
 25 26  1  0  0  0
 26 27  1  0  0  0
 27 28  1  0  0  0
 27 32  1  0  0  0
 28 29  1  0  0  0
 29 30  1  0  0  0
 30 31  1  0  0  0
 31 32  1  0  0  0
  8  9  2  0  0  0
  9 10  1  0  0  0
 20 21  1  0  0  0
 21 22  1  0  0  0
M  END
> <minimizedAffinity>
-7.76512

$$$$
