CHEMBL3927875


 36 39  0  0  0  0  0  0  0  0999 V2000
  -29.3284   -5.0169   -6.0727 C   0  0  0  0  0  0  0  0  0  0  0  0
  -28.9703   -5.4124   -7.3286 C   0  0  0  0  0  0  0  0  0  0  0  0
  -28.5113   -4.6003   -8.1625 C   0  0  0  0  0  0  0  0  0  0  0  0
  -28.3078   -3.3958   -7.9344 C   0  0  0  0  0  0  0  0  0  0  0  0
  -27.6025   -3.0241   -8.7923 N   0  0  0  0  0  0  0  0  0  0  0  0
  -26.9203   -2.7132   -9.6173 C   0  0  0  0  0  0  0  0  0  0  0  0
  -27.2254   -1.3506   -9.5984 C   0  0  0  0  0  0  0  0  0  0  0  0
  -28.0163   -1.0986   -8.0013 N   0  0  0  0  0  0  0  0  0  0  0  0
  -28.5442   -2.4519   -7.0519 C   0  0  0  0  0  0  0  0  0  0  0  0
  -29.1583   -3.5088   -5.7589 C   0  0  0  0  0  0  0  0  0  0  0  0
  -26.6208   -0.9778  -11.3627 C   0  0  0  0  0  0  0  0  0  0  0  0
  -27.1006   -1.6651  -12.5931 C   0  0  0  0  0  0  0  0  0  0  0  0
  -26.1668   -1.6822  -13.6337 N   0  0  0  0  0  0  0  0  0  0  0  0
  -25.0930   -1.0227  -13.2324 N   0  0  0  0  0  0  0  0  0  0  0  0
  -25.3137   -0.5659  -11.9102 C   0  0  0  0  0  0  0  0  0  0  0  0
  -23.8456   -0.8649  -14.0758 C   0  0  0  0  0  0  0  0  0  0  0  0
  -22.7690   -0.1835  -13.2424 C   0  0  0  0  0  0  0  0  0  0  0  0
  -22.1699    1.0247  -13.9199 C   0  0  0  0  0  0  0  0  0  0  0  0
  -20.9876    0.6247  -14.6733 N   0  0  0  0  0  0  0  0  0  0  0  0
  -20.2763    0.2339  -14.0130 H   0  0  0  0  0  0  0  0  0  0  0  0
  -20.5801    1.4744  -15.1219 H   0  0  0  0  0  0  0  0  0  0  0  0
  -29.8415   -6.1411   -5.2501 N   0  0  0  0  0  0  0  0  0  0  0  0
  -28.6938   -9.7442   -5.5539 C   0  0  0  0  0  0  0  0  0  0  0  0
  -27.4984   -9.6811   -5.1710 C   0  0  0  0  0  0  0  0  0  0  0  0
  -27.0312   -8.5726   -4.5888 C   0  0  0  0  0  0  0  0  0  0  0  0
  -27.8391   -7.4348   -4.5188 C   0  0  0  0  0  0  0  0  0  0  0  0
  -29.0856   -7.3980   -5.1548 C   0  0  0  0  0  0  0  0  0  0  0  0
  -29.5076   -8.6847   -5.5891 C   0  0  0  0  0  0  0  0  0  0  0  0
  -29.5537  -11.7673   -6.8708 C   0  0  0  0  0  0  0  0  0  0  0  0
  -29.1532  -10.9381   -5.8334 O   0  0  0  0  0  0  0  0  0  0  0  0
  -25.7981   -8.6476   -4.0939 O   0  0  0  0  0  0  0  0  0  0  0  0
  -24.8975   -9.5946   -4.5641 C   0  0  0  0  0  0  0  0  0  0  0  0
  -31.2437   -6.0554   -4.7948 C   0  0  0  0  0  0  0  0  0  0  0  0
  -31.4294   -5.7432   -3.3250 C   0  0  0  0  0  0  0  0  0  0  0  0
  -30.9827   -6.6796   -2.4235 O   0  0  0  0  0  0  0  0  0  0  0  0
  -31.5737   -7.4452   -2.5909 H   0  0  0  0  0  0  0  0  0  0  0  0
 29 30  1  0  0  0
 30 23  1  0  0  0
 23 24  1  0  0  0
 23 28  2  0  0  0
 24 25  2  0  0  0
 25 31  1  0  0  0
 25 26  1  0  0  0
 31 32  1  0  0  0
 26 27  2  0  0  0
 27 22  1  0  0  0
 27 28  1  0  0  0
 22 33  1  0  0  0
 22  1  1  0  0  0
 33 34  1  0  0  0
 34 35  1  0  0  0
 35 36  1  0  0  0
  1  2  1  0  0  0
  1 10  2  0  0  0
  2  3  2  0  0  0
  3  4  1  0  0  0
  4  5  1  0  0  0
  4  9  2  0  0  0
  5  6  2  0  0  0
  6  7  1  0  0  0
  7 11  1  0  0  0
  7  8  2  0  0  0
 11 12  1  0  0  0
 11 15  2  0  0  0
 12 13  2  0  0  0
 13 14  1  0  0  0
 14 16  1  0  0  0
 14 15  1  0  0  0
 16 17  1  0  0  0
 17 18  1  0  0  0
 18 19  1  0  0  0
 19 20  1  0  0  0
 19 21  1  0  0  0
  8  9  1  0  0  0
  9 10  1  0  0  0
M  END
> <minimizedAffinity>
-8.37400

$$$$
