CHEMBL201307


 44 48  0  0  0  0  0  0  0  0999 V2000
  -29.0291   -4.9530   -5.5008 C   0  0  0  0  0  0  0  0  0  0  0  0
  -29.1939   -6.3198   -5.2859 C   0  0  0  0  0  0  0  0  0  0  0  0
  -29.1015   -7.2402   -6.3564 C   0  0  0  0  0  0  0  0  0  0  0  0
  -29.3405   -8.6210   -6.2279 C   0  0  0  0  0  0  0  0  0  0  0  0
  -29.2441   -9.4457   -7.2856 N   0  0  0  0  0  0  0  0  0  0  0  0
  -28.9484   -8.9041   -8.4663 C   0  0  0  0  0  0  0  0  0  0  0  0
  -28.7290   -7.6041   -8.6994 N   0  0  0  0  0  0  0  0  0  0  0  0
  -28.8113   -6.7900   -7.6423 C   0  0  0  0  0  0  0  0  0  0  0  0
  -28.5812   -5.4371   -7.8378 C   0  0  0  0  0  0  0  0  0  0  0  0
  -28.6473   -4.5160   -6.7781 C   0  0  0  0  0  0  0  0  0  0  0  0
  -30.4016   -4.0897   -3.7188 C   0  0  0  0  0  0  0  0  0  0  0  0
  -29.2321   -4.0173   -4.5231 O   0  0  0  0  0  0  0  0  0  0  0  0
  -29.7202   -9.1497   -4.9707 N   0  0  0  0  0  0  0  0  0  0  0  0
  -30.0551   -8.4070   -4.3631 H   0  0  0  0  0  0  0  0  0  0  0  0
  -28.9827  -10.0813   -4.3219 C   0  0  0  0  0  0  0  0  0  0  0  0
  -29.5103  -10.9761   -3.5055 N   0  0  0  0  0  0  0  0  0  0  0  0
  -28.5068  -11.6711   -2.8535 C   0  0  0  0  0  0  0  0  0  0  0  0
  -27.2159  -11.3392   -3.2181 C   0  0  0  0  0  0  0  0  0  0  0  0
  -27.2795  -10.2738   -4.5544 S   0  0  0  0  0  0  0  0  0  0  0  0
  -25.9077  -11.7135   -2.6197 C   0  0  0  0  0  0  0  0  0  0  0  0
  -24.7450  -11.4936   -3.5620 C   0  0  0  0  0  0  0  0  0  0  0  0
  -24.0893  -10.4538   -3.5027 O   0  0  0  0  0  0  0  0  0  0  0  0
  -24.5870  -12.4656   -4.5355 N   0  0  0  0  0  0  0  0  0  0  0  0
  -25.3887  -13.0527   -4.7347 H   0  0  0  0  0  0  0  0  0  0  0  0
  -23.5722  -12.4058   -5.5063 C   0  0  0  0  0  0  0  0  0  0  0  0
  -22.2423  -12.4091   -5.0755 C   0  0  0  0  0  0  0  0  0  0  0  0
  -21.2027  -12.3904   -6.0089 C   0  0  0  0  0  0  0  0  0  0  0  0
  -21.4921  -12.3047   -7.3694 C   0  0  0  0  0  0  0  0  0  0  0  0
  -22.8177  -12.2626   -7.7870 C   0  0  0  0  0  0  0  0  0  0  0  0
  -23.0919  -12.1455   -9.0932 F   0  0  0  0  0  0  0  0  0  0  0  0
  -23.8605  -12.3319   -6.8710 C   0  0  0  0  0  0  0  0  0  0  0  0
  -28.3081   -3.2371   -7.1448 O   0  0  0  0  0  0  0  0  0  0  0  0
  -28.6951   -2.8896   -8.4698 C   0  0  0  0  0  0  0  0  0  0  0  0
  -27.5862   -2.1405   -9.1997 C   0  0  0  0  0  0  0  0  0  0  0  0
  -28.1825   -1.6192  -10.5148 C   0  0  0  0  0  0  0  0  0  0  0  0
  -27.2020   -1.0981  -11.4721 N   0  0  0  0  0  0  0  0  0  0  0  0
  -25.9412   -0.7261  -10.8190 C   0  0  0  0  0  0  0  0  0  0  0  0
  -24.9678   -0.1331  -11.8348 C   0  0  0  0  0  0  0  0  0  0  0  0
  -24.6893   -1.0939  -12.9989 C   0  0  0  0  0  0  0  0  0  0  0  0
  -26.0187   -1.5668  -13.5952 C   0  0  0  0  0  0  0  0  0  0  0  0
  -26.9752   -2.0970  -12.5312 C   0  0  0  0  0  0  0  0  0  0  0  0
  -23.8158   -2.2830  -12.5770 C   0  0  0  0  0  0  0  0  0  0  0  0
  -22.7296   -1.8493  -11.7695 O   0  0  0  0  0  0  0  0  0  0  0  0
  -22.2358   -1.1815  -12.2756 H   0  0  0  0  0  0  0  0  0  0  0  0
 11 12  1  0  0  0
 12  1  1  0  0  0
  1  2  1  0  0  0
  1 10  2  0  0  0
  2  3  2  0  0  0
  3  4  1  0  0  0
  3  8  1  0  0  0
  4 13  1  0  0  0
  4  5  2  0  0  0
 13 15  1  0  0  0
 13 14  1  0  0  0
 15 16  2  0  0  0
 15 19  1  0  0  0
 16 17  1  0  0  0
 17 18  2  0  0  0
 18 20  1  0  0  0
 18 19  1  0  0  0
 20 21  1  0  0  0
 21 22  2  0  0  0
 21 23  1  0  0  0
 23 25  1  0  0  0
 23 24  1  0  0  0
 25 26  1  0  0  0
 25 31  2  0  0  0
 26 27  2  0  0  0
 27 28  1  0  0  0
 28 29  2  0  0  0
 29 30  1  0  0  0
 29 31  1  0  0  0
  5  6  1  0  0  0
  6  7  2  0  0  0
  7  8  1  0  0  0
  8  9  2  0  0  0
  9 10  1  0  0  0
 10 32  1  0  0  0
 32 33  1  0  0  0
 33 34  1  0  0  0
 34 35  1  0  0  0
 35 36  1  0  0  0
 36 37  1  0  0  0
 36 41  1  0  0  0
 37 38  1  0  0  0
 38 39  1  0  0  0
 39 42  1  0  0  0
 39 40  1  0  0  0
 42 43  1  0  0  0
 43 44  1  0  0  0
 40 41  1  0  0  0
M  END
> <minimizedAffinity>
-8.00387

$$$$
