CHEMBL2322143


 19 22  0  0  0  0  0  0  0  0999 V2000
  -15.2569    4.7582  -17.4680 C   0  0  0  0  0  0  0  0  0  0  0  0
  -16.1183    3.8693  -16.8504 C   0  0  0  0  0  0  0  0  0  0  0  0
  -15.3197    3.0656  -16.0180 C   0  0  0  0  0  0  0  0  0  0  0  0
  -14.0035    3.4580  -16.1492 C   0  0  0  0  0  0  0  0  0  0  0  0
  -12.8923    2.9597  -15.5434 N   0  0  0  0  0  0  0  0  0  0  0  0
  -13.1410    1.9633  -14.7287 C   0  0  0  0  0  0  0  0  0  0  0  0
  -14.4732    1.4379  -14.4887 C   0  0  0  0  0  0  0  0  0  0  0  0
  -14.9158    0.4118  -13.6864 C   0  0  0  0  0  0  0  0  0  0  0  0
  -16.3214    0.3510  -13.8371 C   0  0  0  0  0  0  0  0  0  0  0  0
  -16.7195    1.3616  -14.7034 C   0  0  0  0  0  0  0  0  0  0  0  0
  -15.5676    1.9987  -15.1275 N   0  0  0  0  0  0  0  0  0  0  0  0
  -13.9755    4.4979  -17.0358 N   0  0  0  0  0  0  0  0  0  0  0  0
  -13.1371    4.9842  -17.3149 H   0  0  0  0  0  0  0  0  0  0  0  0
  -18.1047    1.7881  -15.1065 C   0  0  0  0  0  0  0  0  0  0  0  0
  -18.5820    3.0226  -14.3227 C   0  0  0  0  0  0  0  0  0  0  0  0
  -19.9469    3.4856  -14.8235 C   0  0  0  0  0  0  0  0  0  0  0  0
  -20.9788    2.3641  -14.7417 C   0  0  0  0  0  0  0  0  0  0  0  0
  -20.5055    1.0984  -15.4543 C   0  0  0  0  0  0  0  0  0  0  0  0
  -19.1263    0.6497  -14.9670 C   0  0  0  0  0  0  0  0  0  0  0  0
  1  2  2  0  0  0
  1 12  1  0  0  0
  2  3  1  0  0  0
  3  4  2  0  0  0
  3 11  1  0  0  0
  4  5  1  0  0  0
  4 12  1  0  0  0
  5  6  2  0  0  0
  6  7  1  0  0  0
  7  8  2  0  0  0
  7 11  1  0  0  0
  8  9  1  0  0  0
  9 10  2  0  0  0
 10 14  1  0  0  0
 10 11  1  0  0  0
 14 15  1  0  0  0
 14 19  1  0  0  0
 15 16  1  0  0  0
 16 17  1  0  0  0
 17 18  1  0  0  0
 18 19  1  0  0  0
 12 13  1  0  0  0
M  END
> <minimizedAffinity>
-6.72912

$$$$
