CHEMBL3972455


 45 49  0  0  0  0  0  0  0  0999 V2000
  -19.9778    1.4839  -14.9950 C   0  0  0  0  0  0  0  0  0  0  0  0
  -19.9744    2.9415  -15.2815 C   0  0  0  0  0  0  0  0  0  0  0  0
  -18.8054    3.4968  -15.6198 C   0  0  0  0  0  0  0  0  0  0  0  0
  -17.6521    2.6883  -15.6805 C   0  0  0  0  0  0  0  0  0  0  0  0
  -16.4102    2.9989  -15.9811 N   0  0  0  0  0  0  0  0  0  0  0  0
  -15.7230    1.8191  -15.9078 C   0  0  0  0  0  0  0  0  0  0  0  0
  -16.5475    0.7843  -15.5246 C   0  0  0  0  0  0  0  0  0  0  0  0
  -17.7968    1.3398  -15.3845 N   0  0  0  0  0  0  0  0  0  0  0  0
  -18.9543    0.6866  -15.0330 N   0  0  0  0  0  0  0  0  0  0  0  0
  -14.3834    1.7310  -16.1945 N   0  0  0  0  0  0  0  0  0  0  0  0
  -13.4827    2.7550  -16.3569 C   0  0  0  0  0  0  0  0  0  0  0  0
  -12.3237    2.4621  -16.6493 O   0  0  0  0  0  0  0  0  0  0  0  0
  -13.9552    4.0265  -16.1478 N   0  0  0  0  0  0  0  0  0  0  0  0
  -13.9819    0.8141  -16.3328 H   0  0  0  0  0  0  0  0  0  0  0  0
  -14.8905    4.0554  -15.7474 H   0  0  0  0  0  0  0  0  0  0  0  0
  -13.2343    5.2327  -16.2364 C   0  0  0  0  0  0  0  0  0  0  0  0
  -13.0736    5.9351  -17.4352 C   0  0  0  0  0  0  0  0  0  0  0  0
  -12.2759    7.0808  -17.4875 C   0  0  0  0  0  0  0  0  0  0  0  0
  -11.6370    7.5274  -16.3380 C   0  0  0  0  0  0  0  0  0  0  0  0
  -10.8345    8.5989  -16.4208 F   0  0  0  0  0  0  0  0  0  0  0  0
  -11.8267    6.8666  -15.1271 C   0  0  0  0  0  0  0  0  0  0  0  0
  -11.0355    7.4177  -13.6989 Cl  0  0  0  0  0  0  0  0  0  0  0  0
  -12.6425    5.7322  -15.0683 C   0  0  0  0  0  0  0  0  0  0  0  0
  -22.2600    0.3704  -14.2204 C   0  0  0  0  0  0  0  0  0  0  0  0
  -21.2154    0.8172  -14.6268 C   0  0  0  0  0  0  0  0  0  0  0  0
  -25.8067   -1.1663  -12.3715 C   0  0  0  0  0  0  0  0  0  0  0  0
  -25.4274   -1.5617  -13.6580 C   0  0  0  0  0  0  0  0  0  0  0  0
  -24.2811   -1.0331  -14.2766 C   0  0  0  0  0  0  0  0  0  0  0  0
  -23.4991   -0.0767  -13.6299 C   0  0  0  0  0  0  0  0  0  0  0  0
  -23.9144    0.3817  -12.3755 C   0  0  0  0  0  0  0  0  0  0  0  0
  -25.0658   -0.1491  -11.7569 C   0  0  0  0  0  0  0  0  0  0  0  0
  -26.0076   -1.5903   -9.5056 O   0  0  0  0  0  0  0  0  0  0  0  0
  -26.9119   -1.9245  -10.2672 C   0  0  0  0  0  0  0  0  0  0  0  0
  -26.8749   -1.7674  -11.6467 N   0  0  0  0  0  0  0  0  0  0  0  0
  -28.1093   -2.4889   -9.8306 N   0  0  0  0  0  0  0  0  0  0  0  0
  -27.7582   -1.8427  -12.1289 H   0  0  0  0  0  0  0  0  0  0  0  0
  -28.6144   -3.0443  -10.5058 H   0  0  0  0  0  0  0  0  0  0  0  0
  -28.4847   -2.6395   -8.4677 C   0  0  0  0  0  0  0  0  0  0  0  0
  -29.3358   -3.6610   -8.0213 C   0  0  0  0  0  0  0  0  0  0  0  0
  -29.7346   -3.7366   -6.6831 C   0  0  0  0  0  0  0  0  0  0  0  0
  -29.2725   -2.7955   -5.7752 C   0  0  0  0  0  0  0  0  0  0  0  0
  -29.6891   -2.8663   -4.5022 F   0  0  0  0  0  0  0  0  0  0  0  0
  -28.3906   -1.8007   -6.1884 C   0  0  0  0  0  0  0  0  0  0  0  0
  -27.8084   -0.6339   -5.0616 Cl  0  0  0  0  0  0  0  0  0  0  0  0
  -27.9820   -1.7295   -7.5279 C   0  0  0  0  0  0  0  0  0  0  0  0
 32 33  2  0  0  0
 33 34  1  0  0  0
 33 35  1  0  0  0
 34 26  1  0  0  0
 34 36  1  0  0  0
 26 27  1  0  0  0
 26 31  2  0  0  0
 27 28  2  0  0  0
 28 29  1  0  0  0
 29 24  1  0  0  0
 29 30  2  0  0  0
 24 25  3  0  0  0
 25  1  1  0  0  0
  1  2  1  0  0  0
  1  9  2  0  0  0
  2  3  2  0  0  0
  3  4  1  0  0  0
  4  5  2  0  0  0
  4  8  1  0  0  0
  5  6  1  0  0  0
  6 10  1  0  0  0
  6  7  2  0  0  0
 10 11  1  0  0  0
 10 14  1  0  0  0
 11 12  2  0  0  0
 11 13  1  0  0  0
 13 16  1  0  0  0
 13 15  1  0  0  0
 16 17  1  0  0  0
 16 23  2  0  0  0
 17 18  2  0  0  0
 18 19  1  0  0  0
 19 20  1  0  0  0
 19 21  2  0  0  0
 21 22  1  0  0  0
 21 23  1  0  0  0
  7  8  1  0  0  0
  8  9  1  0  0  0
 30 31  1  0  0  0
 35 38  1  0  0  0
 35 37  1  0  0  0
 38 39  1  0  0  0
 38 45  2  0  0  0
 39 40  2  0  0  0
 40 41  1  0  0  0
 41 42  1  0  0  0
 41 43  2  0  0  0
 43 44  1  0  0  0
 43 45  1  0  0  0
M  END
> <minimizedAffinity>
-12.90316

$$$$
