CHEMBL3644024


 31 32  0  0  0  0  0  0  0  0999 V2000
  -30.0362   -9.0253   -7.1363 C   0  0  0  0  0  0  0  0  0  0  0  0
  -30.5067   -8.9289   -8.3833 N   0  0  0  0  0  0  0  0  0  0  0  0
  -29.8441   -9.6187   -9.3222 C   0  0  0  0  0  0  0  0  0  0  0  0
  -28.7323  -10.4023   -9.0987 C   0  0  0  0  0  0  0  0  0  0  0  0
  -28.3689  -10.5123   -7.7614 C   0  0  0  0  0  0  0  0  0  0  0  0
  -29.0101   -9.8149   -6.8136 N   0  0  0  0  0  0  0  0  0  0  0  0
  -28.0714  -11.0144  -10.2746 C   0  0  0  0  0  0  0  0  0  0  0  0
  -28.7869  -10.8280  -11.4296 F   0  0  0  0  0  0  0  0  0  0  0  0
  -26.8501  -10.4869  -10.5606 F   0  0  0  0  0  0  0  0  0  0  0  0
  -27.9033  -12.3607  -10.2036 F   0  0  0  0  0  0  0  0  0  0  0  0
  -30.6219   -8.2030   -6.1746 N   0  0  0  0  0  0  0  0  0  0  0  0
  -31.6177   -8.2188   -6.3749 H   0  0  0  0  0  0  0  0  0  0  0  0
  -29.2976   -4.3364   -5.1639 C   0  0  0  0  0  0  0  0  0  0  0  0
  -28.6394   -5.0434   -6.1715 C   0  0  0  0  0  0  0  0  0  0  0  0
  -29.0817   -6.3177   -6.5148 C   0  0  0  0  0  0  0  0  0  0  0  0
  -30.1552   -6.9148   -5.8375 C   0  0  0  0  0  0  0  0  0  0  0  0
  -30.8359   -6.1729   -4.8648 C   0  0  0  0  0  0  0  0  0  0  0  0
  -30.3965   -4.8929   -4.5054 C   0  0  0  0  0  0  0  0  0  0  0  0
  -28.6680   -2.7490   -4.6652 S   0  0  0  0  0  0  0  0  0  0  0  0
  -27.2210   -2.8608   -4.6342 O   0  0  0  0  0  0  0  0  0  0  0  0
  -29.3969   -2.3697   -3.4652 O   0  0  0  0  0  0  0  0  0  0  0  0
  -29.6474   -0.3143   -5.3877 C   0  0  0  0  0  0  0  0  0  0  0  0
  -29.1341   -1.6247   -5.9821 C   0  0  0  0  0  0  0  0  0  0  0  0
  -27.9866   -1.3495   -6.9478 C   0  0  0  0  0  0  0  0  0  0  0  0
  -27.3077  -11.2911   -7.3441 O   0  0  0  0  0  0  0  0  0  0  0  0
  -26.0239  -10.5695   -7.2826 C   0  0  0  0  0  0  0  0  0  0  0  0
  -24.9230  -11.3783   -7.9829 C   0  0  0  0  0  0  0  0  0  0  0  0
  -25.6586  -10.2839   -5.8065 C   0  0  0  0  0  0  0  0  0  0  0  0
  -24.1541  -10.0886   -5.6307 C   0  0  0  0  0  0  0  0  0  0  0  0
  -26.3035   -9.0843   -5.3579 O   0  0  0  0  0  0  0  0  0  0  0  0
  -26.0643   -8.3768   -5.9843 H   0  0  0  0  0  0  0  0  0  0  0  0
 22 23  1  0  0  0
 23 24  1  0  0  0
 23 19  1  0  0  0
 19 20  2  0  0  0
 19 21  2  0  0  0
 19 13  1  0  0  0
 13 14  1  0  0  0
 13 18  2  0  0  0
 14 15  2  0  0  0
 15 16  1  0  0  0
 16 11  1  0  0  0
 16 17  2  0  0  0
 11  1  1  0  0  0
 11 12  1  0  0  0
  1  2  1  0  0  0
  1  6  2  0  0  0
  2  3  2  0  0  0
  3  4  1  0  0  0
  4  7  1  0  0  0
  4  5  2  0  0  0
  7  8  1  0  0  0
  7  9  1  0  0  0
  7 10  1  0  0  0
  5 25  1  0  0  0
  5  6  1  0  0  0
 26 28  1  0  0  0
 26 27  1  0  0  0
 26 25  1  0  0  0
 28 29  1  0  0  0
 28 30  1  0  0  0
 30 31  1  0  0  0
 17 18  1  0  0  0
M  END
> <minimizedAffinity>
-7.44061

$$$$
