CHEMBL187361


 39 42  0  0  0  0  0  0  0  0999 V2000
  -29.4925   -2.4373   -3.7854 C   0  0  0  0  0  0  0  0  0  0  0  0
  -28.9350   -3.2087   -4.9018 N   0  0  0  0  0  0  0  0  0  0  0  0
  -29.1324   -4.5998   -4.9141 C   0  0  0  0  0  0  0  0  0  0  0  0
  -28.0933   -5.5106   -4.6764 C   0  0  0  0  0  0  0  0  0  0  0  0
  -28.3325   -6.8884   -4.6523 C   0  0  0  0  0  0  0  0  0  0  0  0
  -29.6173   -7.3741   -4.8798 C   0  0  0  0  0  0  0  0  0  0  0  0
  -30.6651   -6.4943   -5.1193 C   0  0  0  0  0  0  0  0  0  0  0  0
  -30.4206   -5.1203   -5.1356 C   0  0  0  0  0  0  0  0  0  0  0  0
  -29.8581   -8.7669   -4.9379 N   0  0  0  0  0  0  0  0  0  0  0  0
  -29.8285   -9.3135   -4.0804 H   0  0  0  0  0  0  0  0  0  0  0  0
  -29.7182   -9.6262   -6.3669 S   0  0  0  0  0  0  0  0  0  0  0  0
  -28.4830  -10.3745   -6.2201 O   0  0  0  0  0  0  0  0  0  0  0  0
  -30.9792  -10.3024   -6.6077 O   0  0  0  0  0  0  0  0  0  0  0  0
  -29.4723   -8.3418   -7.5976 C   0  0  0  0  0  0  0  0  0  0  0  0
  -28.8519   -8.9157   -8.8474 C   0  0  0  0  0  0  0  0  0  0  0  0
  -27.5213   -8.6350   -9.1870 C   0  0  0  0  0  0  0  0  0  0  0  0
  -26.9367   -9.2135  -10.3176 C   0  0  0  0  0  0  0  0  0  0  0  0
  -27.6750  -10.0764  -11.1240 C   0  0  0  0  0  0  0  0  0  0  0  0
  -29.0054  -10.3482  -10.8104 C   0  0  0  0  0  0  0  0  0  0  0  0
  -29.5925   -9.7715   -9.6812 C   0  0  0  0  0  0  0  0  0  0  0  0
  -28.5268   -2.4053   -5.9966 C   0  0  0  0  0  0  0  0  0  0  0  0
  -28.6162   -1.0283   -5.9358 C   0  0  0  0  0  0  0  0  0  0  0  0
  -28.1803   -0.3182   -7.0280 C   0  0  0  0  0  0  0  0  0  0  0  0
  -27.6994   -0.8923   -8.1385 N   0  0  0  0  0  0  0  0  0  0  0  0
  -27.6572   -2.2293   -8.1395 C   0  0  0  0  0  0  0  0  0  0  0  0
  -28.0332   -2.9940   -7.0997 N   0  0  0  0  0  0  0  0  0  0  0  0
  -27.1887   -2.8348   -9.3082 N   0  0  0  0  0  0  0  0  0  0  0  0
  -26.4699   -3.4980   -9.0480 H   0  0  0  0  0  0  0  0  0  0  0  0
  -26.9718   -2.1998  -10.5428 C   0  0  0  0  0  0  0  0  0  0  0  0
  -27.8360   -2.3574  -11.6305 C   0  0  0  0  0  0  0  0  0  0  0  0
  -27.5577   -1.7530  -12.8546 C   0  0  0  0  0  0  0  0  0  0  0  0
  -26.4164   -0.9695  -13.0033 C   0  0  0  0  0  0  0  0  0  0  0  0
  -25.5580   -0.7479  -11.9174 C   0  0  0  0  0  0  0  0  0  0  0  0
  -25.8532   -1.3692  -10.6908 C   0  0  0  0  0  0  0  0  0  0  0  0
  -24.2758    0.0298  -12.0639 C   0  0  0  0  0  0  0  0  0  0  0  0
  -23.2741   -0.5196  -13.4405 S   0  0  0  0  0  0  0  0  0  0  0  0
  -21.8728    0.5738  -13.4568 C   0  0  0  0  0  0  0  0  0  0  0  0
  -22.7693   -1.8372  -13.0915 O   0  0  0  0  0  0  0  0  0  0  0  0
  -24.0013   -0.3382  -14.6832 O   0  0  0  0  0  0  0  0  0  0  0  0
  1  2  1  0  0  0
  2  3  1  0  0  0
  2 21  1  0  0  0
  3  4  1  0  0  0
  3  8  2  0  0  0
  4  5  2  0  0  0
  5  6  1  0  0  0
  6  9  1  0  0  0
  6  7  2  0  0  0
  9 11  1  0  0  0
  9 10  1  0  0  0
 11 12  2  0  0  0
 11 13  2  0  0  0
 11 14  1  0  0  0
 14 15  1  0  0  0
 15 16  1  0  0  0
 15 20  2  0  0  0
 16 17  2  0  0  0
 17 18  1  0  0  0
 18 19  2  0  0  0
 19 20  1  0  0  0
  7  8  1  0  0  0
 21 22  1  0  0  0
 21 26  2  0  0  0
 22 23  2  0  0  0
 23 24  1  0  0  0
 24 25  2  0  0  0
 25 27  1  0  0  0
 25 26  1  0  0  0
 27 29  1  0  0  0
 27 28  1  0  0  0
 29 30  1  0  0  0
 29 34  2  0  0  0
 30 31  2  0  0  0
 31 32  1  0  0  0
 32 33  2  0  0  0
 33 35  1  0  0  0
 33 34  1  0  0  0
 35 36  1  0  0  0
 36 37  1  0  0  0
 36 38  2  0  0  0
 36 39  2  0  0  0
M  END
> <minimizedAffinity>
-9.26212

$$$$
