CHEMBL4175530


 31 33  0  0  0  0  0  0  0  0999 V2000
  -29.1463   -8.7137   -7.6981 C   0  0  0  0  0  0  0  0  0  0  0  0
  -30.2638   -7.9163   -7.9781 C   0  0  0  0  0  0  0  0  0  0  0  0
  -30.5527   -6.7658   -7.2438 C   0  0  0  0  0  0  0  0  0  0  0  0
  -29.7462   -6.3675   -6.1770 C   0  0  0  0  0  0  0  0  0  0  0  0
  -28.6471   -7.1613   -5.8555 C   0  0  0  0  0  0  0  0  0  0  0  0
  -28.3534   -8.3213   -6.6010 C   0  0  0  0  0  0  0  0  0  0  0  0
  -28.6034  -10.6961  -10.7056 C   0  0  0  0  0  0  0  0  0  0  0  0
  -28.4076  -11.9931  -10.2550 C   0  0  0  0  0  0  0  0  0  0  0  0
  -28.4281  -12.2287   -8.8871 C   0  0  0  0  0  0  0  0  0  0  0  0
  -28.6845  -11.1744   -8.0175 C   0  0  0  0  0  0  0  0  0  0  0  0
  -28.8658   -9.8947   -8.5388 C   0  0  0  0  0  0  0  0  0  0  0  0
  -28.7696   -9.6499   -9.8753 N   0  0  0  0  0  0  0  0  0  0  0  0
  -27.6650   -9.6004  -12.6631 C   0  0  0  0  0  0  0  0  0  0  0  0
  -26.6976   -9.0949  -12.1050 O   0  0  0  0  0  0  0  0  0  0  0  0
  -28.6249  -10.3806  -12.0658 N   0  0  0  0  0  0  0  0  0  0  0  0
  -29.1245  -11.0539  -12.6298 H   0  0  0  0  0  0  0  0  0  0  0  0
  -26.8215   -9.2524  -14.9413 C   0  0  0  0  0  0  0  0  0  0  0  0
  -27.8703   -9.4660  -14.1323 C   0  0  0  0  0  0  0  0  0  0  0  0
  -29.9769   -5.1824   -5.4331 N   0  0  0  0  0  0  0  0  0  0  0  0
  -29.5378   -3.9251   -5.8000 C   0  0  0  0  0  0  0  0  0  0  0  0
  -29.0062   -3.6327   -6.8635 O   0  0  0  0  0  0  0  0  0  0  0  0
  -29.7161   -2.9883   -4.7790 N   0  0  0  0  0  0  0  0  0  0  0  0
  -30.5961   -5.2395   -4.6434 H   0  0  0  0  0  0  0  0  0  0  0  0
  -29.6082   -3.3696   -3.8478 H   0  0  0  0  0  0  0  0  0  0  0  0
  -29.2839   -1.6568   -4.9737 C   0  0  0  0  0  0  0  0  0  0  0  0
  -28.0147   -1.2371   -4.5516 C   0  0  0  0  0  0  0  0  0  0  0  0
  -27.6487    0.1064   -4.6265 C   0  0  0  0  0  0  0  0  0  0  0  0
  -28.5561    1.0395   -5.1209 C   0  0  0  0  0  0  0  0  0  0  0  0
  -29.8099    0.6162   -5.5679 C   0  0  0  0  0  0  0  0  0  0  0  0
  -30.9466    1.7840   -6.1265 Cl  0  0  0  0  0  0  0  0  0  0  0  0
  -30.1689   -0.7304   -5.5254 C   0  0  0  0  0  0  0  0  0  0  0  0
 17 18  2  0  0  0
 18 13  1  0  0  0
 13 14  2  0  0  0
 13 15  1  0  0  0
 15  7  1  0  0  0
 15 16  1  0  0  0
  7  8  1  0  0  0
  7 12  2  0  0  0
  8  9  2  0  0  0
  9 10  1  0  0  0
 10 11  2  0  0  0
 11  1  1  0  0  0
 11 12  1  0  0  0
  1  2  1  0  0  0
  1  6  2  0  0  0
  2  3  2  0  0  0
  3  4  1  0  0  0
  4 19  1  0  0  0
  4  5  2  0  0  0
 19 20  1  0  0  0
 19 23  1  0  0  0
 20 21  2  0  0  0
 20 22  1  0  0  0
 22 25  1  0  0  0
 22 24  1  0  0  0
 25 26  1  0  0  0
 25 31  2  0  0  0
 26 27  2  0  0  0
 27 28  1  0  0  0
 28 29  2  0  0  0
 29 30  1  0  0  0
 29 31  1  0  0  0
  5  6  1  0  0  0
M  END
> <minimizedAffinity>
-8.68331

$$$$
