CHEMBL3944638


 38 42  0  0  0  0  0  0  0  0999 V2000
  -14.3809    0.7765  -15.8552 C   0  0  0  0  0  0  0  0  0  0  0  0
  -14.2130    0.9505  -17.0621 O   0  0  0  0  0  0  0  0  0  0  0  0
  -15.7350    1.0349  -15.2690 C   0  0  0  0  0  0  0  0  0  0  0  0
  -16.0453    0.8767  -13.9052 C   0  0  0  0  0  0  0  0  0  0  0  0
  -17.3585    1.0632  -13.4148 C   0  0  0  0  0  0  0  0  0  0  0  0
  -18.3129    1.6158  -14.2872 C   0  0  0  0  0  0  0  0  0  0  0  0
  -19.6963    2.0132  -14.3112 C   0  0  0  0  0  0  0  0  0  0  0  0
  -19.7131    3.1974  -14.9612 N   0  0  0  0  0  0  0  0  0  0  0  0
  -18.7809    2.9852  -15.9046 N   0  0  0  0  0  0  0  0  0  0  0  0
  -17.8667    2.0279  -15.5384 C   0  0  0  0  0  0  0  0  0  0  0  0
  -16.6836    1.5977  -16.1304 C   0  0  0  0  0  0  0  0  0  0  0  0
  -18.7437    3.6031  -16.7027 H   0  0  0  0  0  0  0  0  0  0  0  0
  -20.8549    1.1908  -14.6641 C   0  0  0  0  0  0  0  0  0  0  0  0
  -22.0186    1.2284  -13.9833 C   0  0  0  0  0  0  0  0  0  0  0  0
  -22.7218    0.0041  -13.5349 C   0  0  0  0  0  0  0  0  0  0  0  0
  -22.5192   -0.5182  -12.2412 C   0  0  0  0  0  0  0  0  0  0  0  0
  -23.3613   -1.5003  -11.7134 C   0  0  0  0  0  0  0  0  0  0  0  0
  -24.4244   -1.9798  -12.4735 C   0  0  0  0  0  0  0  0  0  0  0  0
  -24.6268   -1.4861  -13.7569 C   0  0  0  0  0  0  0  0  0  0  0  0
  -23.7919   -0.4957  -14.2877 C   0  0  0  0  0  0  0  0  0  0  0  0
  -12.0873   -1.4433  -13.8255 C   0  0  0  0  0  0  0  0  0  0  0  0
  -11.0127   -0.5741  -13.6142 C   0  0  0  0  0  0  0  0  0  0  0  0
  -11.0674    0.7498  -14.0468 C   0  0  0  0  0  0  0  0  0  0  0  0
  -12.1775    1.2176  -14.7215 C   0  0  0  0  0  0  0  0  0  0  0  0
  -13.2187    0.3340  -15.0531 C   0  0  0  0  0  0  0  0  0  0  0  0
  -13.1759   -0.9909  -14.5778 C   0  0  0  0  0  0  0  0  0  0  0  0
  -11.7386   -2.3818  -11.0470 O   0  0  0  0  0  0  0  0  0  0  0  0
  -11.9165   -3.1238  -12.0026 C   0  0  0  0  0  0  0  0  0  0  0  0
  -12.1129   -2.7556  -13.3119 N   0  0  0  0  0  0  0  0  0  0  0  0
  -12.3514   -3.5167  -13.9314 H   0  0  0  0  0  0  0  0  0  0  0  0
  -11.9248   -4.4796  -11.9113 O   0  0  0  0  0  0  0  0  0  0  0  0
  -12.8397   -5.0042  -10.9388 C   0  0  0  0  0  0  0  0  0  0  0  0
  -14.2279   -5.1605  -11.5038 C   0  0  0  0  0  0  0  0  0  0  0  0
  -14.4832   -6.1088  -12.5040 C   0  0  0  0  0  0  0  0  0  0  0  0
  -15.7804   -6.3034  -12.9814 C   0  0  0  0  0  0  0  0  0  0  0  0
  -16.8336   -5.5453  -12.4727 C   0  0  0  0  0  0  0  0  0  0  0  0
  -16.5886   -4.5829  -11.4949 C   0  0  0  0  0  0  0  0  0  0  0  0
  -15.2911   -4.3866  -11.0164 C   0  0  0  0  0  0  0  0  0  0  0  0
 27 28  2  0  0  0
 28 29  1  0  0  0
 28 31  1  0  0  0
 29 21  1  0  0  0
 29 30  1  0  0  0
 21 22  1  0  0  0
 21 26  2  0  0  0
 22 23  2  0  0  0
 23 24  1  0  0  0
 24 25  2  0  0  0
 25  1  1  0  0  0
 25 26  1  0  0  0
  1  2  2  0  0  0
  1  3  1  0  0  0
  3  4  1  0  0  0
  3 11  2  0  0  0
  4  5  2  0  0  0
  5  6  1  0  0  0
  6  7  1  0  0  0
  6 10  2  0  0  0
  7 13  1  0  0  0
  7  8  2  0  0  0
 13 14  2  0  0  0
 14 15  1  0  0  0
 15 16  1  0  0  0
 15 20  2  0  0  0
 16 17  2  0  0  0
 17 18  1  0  0  0
 18 19  2  0  0  0
 19 20  1  0  0  0
  8  9  1  0  0  0
  9 10  1  0  0  0
  9 12  1  0  0  0
 10 11  1  0  0  0
 31 32  1  0  0  0
 32 33  1  0  0  0
 33 34  1  0  0  0
 33 38  2  0  0  0
 34 35  2  0  0  0
 35 36  1  0  0  0
 36 37  2  0  0  0
 37 38  1  0  0  0
M  END
> <minimizedAffinity>
-10.48678

$$$$
