CHEMBL3633771


 32 34  0  0  0  0  0  0  0  0999 V2000
  -30.9683   -7.8349   -7.0051 C   0  0  0  0  0  0  0  0  0  0  0  0
  -31.6022   -7.2094   -5.9271 C   0  0  0  0  0  0  0  0  0  0  0  0
  -31.0371   -6.1450   -5.2431 C   0  0  0  0  0  0  0  0  0  0  0  0
  -31.7097   -5.6439   -4.2048 N   0  0  0  0  0  0  0  0  0  0  0  0
  -31.1388   -4.6276   -3.5566 C   0  0  0  0  0  0  0  0  0  0  0  0
  -29.9754   -4.0594   -3.8700 N   0  0  0  0  0  0  0  0  0  0  0  0
  -29.3120   -4.5592   -4.9307 C   0  0  0  0  0  0  0  0  0  0  0  0
  -29.8005   -5.6492   -5.6667 C   0  0  0  0  0  0  0  0  0  0  0  0
  -29.1537   -6.2513   -6.7704 C   0  0  0  0  0  0  0  0  0  0  0  0
  -29.7526   -7.3051   -7.4653 C   0  0  0  0  0  0  0  0  0  0  0  0
  -32.7919   -9.3848   -7.2906 C   0  0  0  0  0  0  0  0  0  0  0  0
  -31.4980   -8.9140   -7.6584 O   0  0  0  0  0  0  0  0  0  0  0  0
  -28.0943   -3.9337   -5.3154 N   0  0  0  0  0  0  0  0  0  0  0  0
  -27.5594   -4.5817   -5.8941 H   0  0  0  0  0  0  0  0  0  0  0  0
  -28.0302   -2.6169   -5.8429 C   0  0  0  0  0  0  0  0  0  0  0  0
  -28.0247   -1.5177   -4.9664 C   0  0  0  0  0  0  0  0  0  0  0  0
  -28.0360   -0.2157   -5.4600 C   0  0  0  0  0  0  0  0  0  0  0  0
  -28.0851    1.1074   -4.3637 Cl  0  0  0  0  0  0  0  0  0  0  0  0
  -28.0269    0.0149   -6.8331 C   0  0  0  0  0  0  0  0  0  0  0  0
  -27.9885   -1.0629   -7.7182 C   0  0  0  0  0  0  0  0  0  0  0  0
  -27.9845   -2.3710   -7.2240 C   0  0  0  0  0  0  0  0  0  0  0  0
  -27.9625   -3.6812   -8.3526 Cl  0  0  0  0  0  0  0  0  0  0  0  0
  -29.0335   -7.7236   -8.5579 O   0  0  0  0  0  0  0  0  0  0  0  0
  -27.9626   -8.6206   -8.2643 C   0  0  0  0  0  0  0  0  0  0  0  0
  -28.3727  -10.0568   -8.5982 C   0  0  0  0  0  0  0  0  0  0  0  0
  -27.5051  -10.5755   -9.7401 C   0  0  0  0  0  0  0  0  0  0  0  0
  -28.0008  -10.2027  -11.1147 C   0  0  0  0  0  0  0  0  0  0  0  0
  -29.0515  -10.5887  -11.6181 O   0  0  0  0  0  0  0  0  0  0  0  0
  -27.1315   -9.3610  -11.7778 N   0  0  0  0  0  0  0  0  0  0  0  0
  -27.4626   -9.0447  -13.1138 O   0  0  0  0  0  0  0  0  0  0  0  0
  -26.1586   -9.2477  -11.5132 H   0  0  0  0  0  0  0  0  0  0  0  0
  -28.3183   -9.5116  -13.2361 H   0  0  0  0  0  0  0  0  0  0  0  0
 11 12  1  0  0  0
 12  1  1  0  0  0
  1  2  1  0  0  0
  1 10  2  0  0  0
  2  3  2  0  0  0
  3  4  1  0  0  0
  3  8  1  0  0  0
  4  5  2  0  0  0
  5  6  1  0  0  0
  6  7  2  0  0  0
  7 13  1  0  0  0
  7  8  1  0  0  0
 13 15  1  0  0  0
 13 14  1  0  0  0
 15 16  1  0  0  0
 15 21  2  0  0  0
 16 17  2  0  0  0
 17 18  1  0  0  0
 17 19  1  0  0  0
 19 20  2  0  0  0
 20 21  1  0  0  0
 21 22  1  0  0  0
  8  9  2  0  0  0
  9 10  1  0  0  0
 10 23  1  0  0  0
 23 24  1  0  0  0
 24 25  1  0  0  0
 25 26  1  0  0  0
 26 27  1  0  0  0
 27 28  2  0  0  0
 27 29  1  0  0  0
 29 30  1  0  0  0
 29 31  1  0  0  0
 30 32  1  0  0  0
M  END
> <minimizedAffinity>
-8.11302

$$$$
