CHEMBL2023225


 37 41  0  0  0  0  0  0  0  0999 V2000
  -13.6002    2.6118  -15.0851 C   0  0  0  0  0  0  0  0  0  0  0  0
  -14.5276    1.8318  -15.7796 C   0  0  0  0  0  0  0  0  0  0  0  0
  -14.5706    0.4465  -15.5898 C   0  0  0  0  0  0  0  0  0  0  0  0
  -13.6628   -0.1969  -14.7329 C   0  0  0  0  0  0  0  0  0  0  0  0
  -12.6610    0.5857  -14.1440 C   0  0  0  0  0  0  0  0  0  0  0  0
  -12.6407    1.9825  -14.2966 C   0  0  0  0  0  0  0  0  0  0  0  0
  -13.7859   -1.6432  -14.4713 C   0  0  0  0  0  0  0  0  0  0  0  0
  -13.0959   -2.5168  -15.2873 C   0  0  0  0  0  0  0  0  0  0  0  0
  -13.3815   -4.1383  -14.9353 S   0  0  0  0  0  0  0  0  0  0  0  0
  -14.3884   -3.7685  -13.5800 C   0  0  0  0  0  0  0  0  0  0  0  0
  -15.0026   -4.6841  -12.6935 C   0  0  0  0  0  0  0  0  0  0  0  0
  -15.8154   -4.1166  -11.7291 C   0  0  0  0  0  0  0  0  0  0  0  0
  -16.0512   -2.8011  -11.5986 N   0  0  0  0  0  0  0  0  0  0  0  0
  -15.4654   -1.9245  -12.4373 C   0  0  0  0  0  0  0  0  0  0  0  0
  -15.8382   -0.6072  -12.2061 N   0  0  0  0  0  0  0  0  0  0  0  0
  -14.5779   -2.3711  -13.4614 C   0  0  0  0  0  0  0  0  0  0  0  0
  -16.6300   -0.5966  -11.5720 H   0  0  0  0  0  0  0  0  0  0  0  0
  -15.9636   -0.0688  -13.0543 H   0  0  0  0  0  0  0  0  0  0  0  0
  -14.7999   -6.1209  -12.7714 C   0  0  0  0  0  0  0  0  0  0  0  0
  -15.4224   -7.1243  -13.5535 C   0  0  0  0  0  0  0  0  0  0  0  0
  -14.9134   -8.3413  -13.3441 N   0  0  0  0  0  0  0  0  0  0  0  0
  -13.9537   -8.1261  -12.4322 N   0  0  0  0  0  0  0  0  0  0  0  0
  -13.1358   -9.2216  -11.9722 C   0  0  0  0  0  0  0  0  0  0  0  0
  -13.8424   -6.8171  -12.0583 C   0  0  0  0  0  0  0  0  0  0  0  0
  -13.1326    6.0890  -16.0548 N   0  0  0  0  0  0  0  0  0  0  0  0
  -12.9942    4.7077  -16.1173 C   0  0  0  0  0  0  0  0  0  0  0  0
  -12.3778    4.1046  -16.9861 O   0  0  0  0  0  0  0  0  0  0  0  0
  -13.6769    4.0312  -15.1102 N   0  0  0  0  0  0  0  0  0  0  0  0
  -13.7360    6.4687  -15.3429 H   0  0  0  0  0  0  0  0  0  0  0  0
  -14.5729    4.4317  -14.8773 H   0  0  0  0  0  0  0  0  0  0  0  0
  -14.4953    6.7344  -18.6501 C   0  0  0  0  0  0  0  0  0  0  0  0
  -13.1767    7.3068  -18.2108 C   0  0  0  0  0  0  0  0  0  0  0  0
  -12.5386    8.1980  -19.1058 C   0  0  0  0  0  0  0  0  0  0  0  0
  -11.3057    8.7745  -18.8081 C   0  0  0  0  0  0  0  0  0  0  0  0
  -10.6970    8.4917  -17.5969 C   0  0  0  0  0  0  0  0  0  0  0  0
  -11.3235    7.6282  -16.6965 C   0  0  0  0  0  0  0  0  0  0  0  0
  -12.5510    7.0076  -16.9896 C   0  0  0  0  0  0  0  0  0  0  0  0
 31 32  1  0  0  0
 32 33  1  0  0  0
 32 37  2  0  0  0
 33 34  2  0  0  0
 34 35  1  0  0  0
 35 36  2  0  0  0
 36 37  1  0  0  0
 37 25  1  0  0  0
 25 26  1  0  0  0
 25 29  1  0  0  0
 26 27  2  0  0  0
 26 28  1  0  0  0
 28  1  1  0  0  0
 28 30  1  0  0  0
  1  2  1  0  0  0
  1  6  2  0  0  0
  2  3  2  0  0  0
  3  4  1  0  0  0
  4  7  1  0  0  0
  4  5  2  0  0  0
  7  8  2  0  0  0
  7 16  1  0  0  0
  8  9  1  0  0  0
  9 10  1  0  0  0
 10 11  1  0  0  0
 10 16  2  0  0  0
 11 19  1  0  0  0
 11 12  2  0  0  0
 19 20  1  0  0  0
 19 24  2  0  0  0
 20 21  2  0  0  0
 21 22  1  0  0  0
 22 23  1  0  0  0
 22 24  1  0  0  0
 12 13  1  0  0  0
 13 14  2  0  0  0
 14 15  1  0  0  0
 14 16  1  0  0  0
 15 17  1  0  0  0
 15 18  1  0  0  0
  5  6  1  0  0  0
M  END
> <minimizedAffinity>
-7.02054

$$$$
