CHEMBL413621


 39 43  0  0  0  0  0  0  0  0999 V2000
  -23.4133   -0.6289  -13.5220 C   0  0  0  0  0  0  0  0  0  0  0  0
  -22.7037   -1.1794  -12.4474 C   0  0  0  0  0  0  0  0  0  0  0  0
  -23.3622   -1.6856  -11.3144 C   0  0  0  0  0  0  0  0  0  0  0  0
  -24.7572   -1.6192  -11.3264 C   0  0  0  0  0  0  0  0  0  0  0  0
  -25.7312   -2.0566  -10.4605 N   0  0  0  0  0  0  0  0  0  0  0  0
  -26.9609   -1.7337  -10.9868 C   0  0  0  0  0  0  0  0  0  0  0  0
  -26.8136   -1.0857  -12.1193 N   0  0  0  0  0  0  0  0  0  0  0  0
  -25.4729   -1.0248  -12.3552 C   0  0  0  0  0  0  0  0  0  0  0  0
  -24.8026   -0.4801  -13.4528 C   0  0  0  0  0  0  0  0  0  0  0  0
  -25.5775   -2.5510   -9.5972 H   0  0  0  0  0  0  0  0  0  0  0  0
  -28.0989   -2.1078  -10.3589 N   0  0  0  0  0  0  0  0  0  0  0  0
  -28.9807   -2.1296  -10.8534 H   0  0  0  0  0  0  0  0  0  0  0  0
  -28.2313   -2.2389   -8.9556 C   0  0  0  0  0  0  0  0  0  0  0  0
  -27.6771   -1.2662   -8.1185 C   0  0  0  0  0  0  0  0  0  0  0  0
  -27.7039   -1.4224   -6.7283 C   0  0  0  0  0  0  0  0  0  0  0  0
  -28.2964   -2.5468   -6.1484 C   0  0  0  0  0  0  0  0  0  0  0  0
  -28.2466   -2.6777   -4.4276 Cl  0  0  0  0  0  0  0  0  0  0  0  0
  -28.9051   -3.5141   -6.9573 C   0  0  0  0  0  0  0  0  0  0  0  0
  -28.8521   -3.3479   -8.3538 C   0  0  0  0  0  0  0  0  0  0  0  0
  -29.6812   -4.6908   -6.4047 C   0  0  0  0  0  0  0  0  0  0  0  0
  -28.8745   -5.9127   -6.3454 N   0  0  0  0  0  0  0  0  0  0  0  0
  -28.8142   -6.5147   -5.0038 C   0  0  0  0  0  0  0  0  0  0  0  0
  -27.8694   -7.7371   -4.9944 C   0  0  0  0  0  0  0  0  0  0  0  0
  -28.2082   -8.7876   -5.9749 N   0  0  0  0  0  0  0  0  0  0  0  0
  -29.3926   -9.5351   -5.5635 C   0  0  0  0  0  0  0  0  0  0  0  0
  -28.3901   -8.1636   -7.3041 C   0  0  0  0  0  0  0  0  0  0  0  0
  -29.3074   -6.9147   -7.3294 C   0  0  0  0  0  0  0  0  0  0  0  0
  -22.6735   -0.2225  -14.6159 O   0  0  0  0  0  0  0  0  0  0  0  0
  -19.9554    2.2503  -14.7651 C   0  0  0  0  0  0  0  0  0  0  0  0
  -20.5791    1.0165  -14.8690 C   0  0  0  0  0  0  0  0  0  0  0  0
  -21.9222    0.9311  -14.5119 C   0  0  0  0  0  0  0  0  0  0  0  0
  -22.5628    2.0476  -13.9844 C   0  0  0  0  0  0  0  0  0  0  0  0
  -21.8475    3.2315  -13.8889 C   0  0  0  0  0  0  0  0  0  0  0  0
  -20.5603    3.3704  -14.2771 N   0  0  0  0  0  0  0  0  0  0  0  0
  -16.7729    3.9784  -15.8577 C   0  0  0  0  0  0  0  0  0  0  0  0
  -18.1032    3.6877  -15.3982 N   0  0  0  0  0  0  0  0  0  0  0  0
  -18.5390    2.3904  -15.2346 C   0  0  0  0  0  0  0  0  0  0  0  0
  -17.8383    1.4081  -15.4530 O   0  0  0  0  0  0  0  0  0  0  0  0
  -18.7728    4.4285  -15.2091 H   0  0  0  0  0  0  0  0  0  0  0  0
 35 36  1  0  0  0
 36 37  1  0  0  0
 36 39  1  0  0  0
 37 38  2  0  0  0
 37 29  1  0  0  0
 29 30  1  0  0  0
 29 34  2  0  0  0
 30 31  2  0  0  0
 31 28  1  0  0  0
 31 32  1  0  0  0
 28  1  1  0  0  0
  1  2  1  0  0  0
  1  9  2  0  0  0
  2  3  2  0  0  0
  3  4  1  0  0  0
  4  5  1  0  0  0
  4  8  2  0  0  0
  5  6  1  0  0  0
  5 10  1  0  0  0
  6 11  1  0  0  0
  6  7  2  0  0  0
 11 13  1  0  0  0
 11 12  1  0  0  0
 13 14  1  0  0  0
 13 19  2  0  0  0
 14 15  2  0  0  0
 15 16  1  0  0  0
 16 17  1  0  0  0
 16 18  2  0  0  0
 18 20  1  0  0  0
 18 19  1  0  0  0
 20 21  1  0  0  0
 21 22  1  0  0  0
 21 27  1  0  0  0
 22 23  1  0  0  0
 23 24  1  0  0  0
 24 25  1  0  0  0
 24 26  1  0  0  0
 26 27  1  0  0  0
  7  8  1  0  0  0
  8  9  1  0  0  0
 32 33  2  0  0  0
 33 34  1  0  0  0
M  END
> <minimizedAffinity>
-11.18802

$$$$
