CHEMBL446367


 36 40  0  0  0  0  0  0  0  0999 V2000
  -14.7625   -0.2320  -14.4528 C   0  0  0  0  0  0  0  0  0  0  0  0
  -14.5025    0.8206  -15.3168 C   0  0  0  0  0  0  0  0  0  0  0  0
  -15.5181    1.7395  -15.6041 C   0  0  0  0  0  0  0  0  0  0  0  0
  -15.2730    2.8083  -16.4859 C   0  0  0  0  0  0  0  0  0  0  0  0
  -16.2697    3.7302  -16.7949 C   0  0  0  0  0  0  0  0  0  0  0  0
  -17.5309    3.6086  -16.2221 C   0  0  0  0  0  0  0  0  0  0  0  0
  -17.7997    2.5555  -15.3319 C   0  0  0  0  0  0  0  0  0  0  0  0
  -16.7880    1.5972  -15.0058 C   0  0  0  0  0  0  0  0  0  0  0  0
  -16.9208    0.4904  -14.1358 C   0  0  0  0  0  0  0  0  0  0  0  0
  -15.9558   -0.4333  -13.8696 N   0  0  0  0  0  0  0  0  0  0  0  0
  -19.1319    2.5145  -14.6699 C   0  0  0  0  0  0  0  0  0  0  0  0
  -19.3994    3.4138  -13.8834 O   0  0  0  0  0  0  0  0  0  0  0  0
  -19.9478    1.4333  -14.9907 N   0  0  0  0  0  0  0  0  0  0  0  0
  -19.5583    0.7156  -15.5925 H   0  0  0  0  0  0  0  0  0  0  0  0
  -21.2120    1.1558  -14.4197 C   0  0  0  0  0  0  0  0  0  0  0  0
  -22.1229    2.1517  -14.0547 C   0  0  0  0  0  0  0  0  0  0  0  0
  -23.3205    1.8310  -13.4082 C   0  0  0  0  0  0  0  0  0  0  0  0
  -23.6256    0.5042  -13.1344 C   0  0  0  0  0  0  0  0  0  0  0  0
  -25.0729    0.1153  -12.2935 Cl  0  0  0  0  0  0  0  0  0  0  0  0
  -22.7528   -0.5047  -13.5341 C   0  0  0  0  0  0  0  0  0  0  0  0
  -21.5534   -0.1815  -14.1827 C   0  0  0  0  0  0  0  0  0  0  0  0
  -13.6885   -1.0851  -14.2265 O   0  0  0  0  0  0  0  0  0  0  0  0
  -14.9315   -6.1250  -14.1597 C   0  0  0  0  0  0  0  0  0  0  0  0
  -14.0685   -5.8371  -15.2337 C   0  0  0  0  0  0  0  0  0  0  0  0
  -13.6026   -4.5588  -15.5051 C   0  0  0  0  0  0  0  0  0  0  0  0
  -12.7038   -4.4169  -16.4942 N   0  0  0  0  0  0  0  0  0  0  0  0
  -12.1940   -3.1905  -16.7212 C   0  0  0  0  0  0  0  0  0  0  0  0
  -12.5597   -2.0691  -16.0092 C   0  0  0  0  0  0  0  0  0  0  0  0
  -13.5130   -2.2132  -15.0059 C   0  0  0  0  0  0  0  0  0  0  0  0
  -14.0450   -3.4885  -14.7075 C   0  0  0  0  0  0  0  0  0  0  0  0
  -14.9465   -3.7770  -13.6562 C   0  0  0  0  0  0  0  0  0  0  0  0
  -15.3949   -5.0694  -13.3725 C   0  0  0  0  0  0  0  0  0  0  0  0
  -14.4708   -8.1376  -13.0090 C   0  0  0  0  0  0  0  0  0  0  0  0
  -15.3309   -7.4106  -13.8859 O   0  0  0  0  0  0  0  0  0  0  0  0
  -16.2312   -5.0705  -12.2934 O   0  0  0  0  0  0  0  0  0  0  0  0
  -16.3547   -3.9366  -11.4570 C   0  0  0  0  0  0  0  0  0  0  0  0
 33 34  1  0  0  0
 34 23  1  0  0  0
 23 24  1  0  0  0
 23 32  2  0  0  0
 24 25  2  0  0  0
 25 26  1  0  0  0
 25 30  1  0  0  0
 26 27  2  0  0  0
 27 28  1  0  0  0
 28 29  2  0  0  0
 29 22  1  0  0  0
 29 30  1  0  0  0
 22  1  1  0  0  0
  1  2  1  0  0  0
  1 10  2  0  0  0
  2  3  2  0  0  0
  3  4  1  0  0  0
  3  8  1  0  0  0
  4  5  2  0  0  0
  5  6  1  0  0  0
  6  7  2  0  0  0
  7 11  1  0  0  0
  7  8  1  0  0  0
 11 12  2  0  0  0
 11 13  1  0  0  0
 13 15  1  0  0  0
 13 14  1  0  0  0
 15 16  1  0  0  0
 15 21  2  0  0  0
 16 17  2  0  0  0
 17 18  1  0  0  0
 18 19  1  0  0  0
 18 20  2  0  0  0
 20 21  1  0  0  0
  8  9  2  0  0  0
  9 10  1  0  0  0
 30 31  2  0  0  0
 31 32  1  0  0  0
 32 35  1  0  0  0
 35 36  1  0  0  0
M  END
> <minimizedAffinity>
-8.99524

$$$$
