CHEMBL3958130


 26 29  0  0  0  0  0  0  0  0999 V2000
  -28.8384   -8.3371   -7.0433 C   0  0  0  0  0  0  0  0  0  0  0  0
  -29.4063   -7.2865   -7.7913 C   0  0  0  0  0  0  0  0  0  0  0  0
  -29.9414   -6.1251   -7.1782 C   0  0  0  0  0  0  0  0  0  0  0  0
  -30.0748   -6.1136   -5.7754 C   0  0  0  0  0  0  0  0  0  0  0  0
  -30.4397   -5.2347   -4.6973 C   0  0  0  0  0  0  0  0  0  0  0  0
  -30.9797   -6.0063   -3.7265 N   0  0  0  0  0  0  0  0  0  0  0  0
  -30.2584   -7.1302   -3.8557 N   0  0  0  0  0  0  0  0  0  0  0  0
  -29.6857   -7.2581   -5.0900 C   0  0  0  0  0  0  0  0  0  0  0  0
  -28.9236   -8.2887   -5.6457 C   0  0  0  0  0  0  0  0  0  0  0  0
  -30.2689   -7.8027   -3.0996 H   0  0  0  0  0  0  0  0  0  0  0  0
  -27.3472  -10.2017   -6.7695 C   0  0  0  0  0  0  0  0  0  0  0  0
  -28.2587   -9.4828   -7.6660 N   0  0  0  0  0  0  0  0  0  0  0  0
  -28.1704   -9.7047   -9.0615 C   0  0  0  0  0  0  0  0  0  0  0  0
  -26.9982   -9.3291   -9.7446 C   0  0  0  0  0  0  0  0  0  0  0  0
  -26.8809   -9.4497  -11.1363 C   0  0  0  0  0  0  0  0  0  0  0  0
  -27.9350   -9.9579  -11.8816 C   0  0  0  0  0  0  0  0  0  0  0  0
  -29.0960  -10.3659  -11.2341 C   0  0  0  0  0  0  0  0  0  0  0  0
  -29.2064  -10.2473   -9.8402 C   0  0  0  0  0  0  0  0  0  0  0  0
  -29.7030   -4.0958   -4.1678 C   0  0  0  0  0  0  0  0  0  0  0  0
  -30.1889   -2.8413   -4.2394 C   0  0  0  0  0  0  0  0  0  0  0  0
  -29.4205   -1.7104   -4.8199 C   0  0  0  0  0  0  0  0  0  0  0  0
  -30.0805   -0.5411   -5.2536 C   0  0  0  0  0  0  0  0  0  0  0  0
  -29.3626    0.6318   -5.5267 C   0  0  0  0  0  0  0  0  0  0  0  0
  -27.9794    0.6486   -5.3873 C   0  0  0  0  0  0  0  0  0  0  0  0
  -27.3189   -0.5168   -4.9908 C   0  0  0  0  0  0  0  0  0  0  0  0
  -28.0337   -1.6884   -4.6934 C   0  0  0  0  0  0  0  0  0  0  0  0
 11 12  1  0  0  0
 12 13  1  0  0  0
 12  1  1  0  0  0
 13 14  1  0  0  0
 13 18  2  0  0  0
 14 15  2  0  0  0
 15 16  1  0  0  0
 16 17  2  0  0  0
 17 18  1  0  0  0
  1  2  1  0  0  0
  1  9  2  0  0  0
  2  3  2  0  0  0
  3  4  1  0  0  0
  4  5  1  0  0  0
  4  8  2  0  0  0
  5 19  1  0  0  0
  5  6  2  0  0  0
 19 20  2  0  0  0
 20 21  1  0  0  0
 21 22  1  0  0  0
 21 26  2  0  0  0
 22 23  2  0  0  0
 23 24  1  0  0  0
 24 25  2  0  0  0
 25 26  1  0  0  0
  6  7  1  0  0  0
  7  8  1  0  0  0
  7 10  1  0  0  0
  8  9  1  0  0  0
M  END
> <minimizedAffinity>
-9.04457

$$$$
