CHEMBL3690546


 35 38  0  0  0  0  0  0  0  0999 V2000
  -28.6411   -4.7132   -6.3813 C   0  0  0  0  0  0  0  0  0  0  0  0
  -28.3675   -5.1381   -7.7628 C   0  0  0  0  0  0  0  0  0  0  0  0
  -28.0008   -4.2398   -8.6922 C   0  0  0  0  0  0  0  0  0  0  0  0
  -27.8624   -2.8966   -8.3392 N   0  0  0  0  0  0  0  0  0  0  0  0
  -27.4445   -1.7876   -9.0676 C   0  0  0  0  0  0  0  0  0  0  0  0
  -27.5682   -0.7363   -8.1668 C   0  0  0  0  0  0  0  0  0  0  0  0
  -28.0084   -1.1437   -6.9418 N   0  0  0  0  0  0  0  0  0  0  0  0
  -28.1707   -2.4405   -7.0585 C   0  0  0  0  0  0  0  0  0  0  0  0
  -28.5867   -3.3927   -6.0871 C   0  0  0  0  0  0  0  0  0  0  0  0
  -30.2889   -6.4274   -3.4758 C   0  0  0  0  0  0  0  0  0  0  0  0
  -30.0604   -5.4758   -4.4498 C   0  0  0  0  0  0  0  0  0  0  0  0
  -29.0082   -5.6923   -5.3224 C   0  0  0  0  0  0  0  0  0  0  0  0
  -28.2114   -6.7741   -5.2231 N   0  0  0  0  0  0  0  0  0  0  0  0
  -28.5270   -7.6463   -4.2593 C   0  0  0  0  0  0  0  0  0  0  0  0
  -29.5342   -7.5307   -3.3845 N   0  0  0  0  0  0  0  0  0  0  0  0
  -32.2225   -5.0977   -2.9462 C   0  0  0  0  0  0  0  0  0  0  0  0
  -31.3655   -6.2176   -2.5947 N   0  0  0  0  0  0  0  0  0  0  0  0
  -31.8909   -7.0813   -2.4908 H   0  0  0  0  0  0  0  0  0  0  0  0
  -27.0170   -1.7300  -10.4728 C   0  0  0  0  0  0  0  0  0  0  0  0
  -27.9896   -1.8990  -11.4696 C   0  0  0  0  0  0  0  0  0  0  0  0
  -27.6532   -1.8269  -12.8166 C   0  0  0  0  0  0  0  0  0  0  0  0
  -26.3349   -1.5859  -13.1925 C   0  0  0  0  0  0  0  0  0  0  0  0
  -25.3416   -1.3897  -12.2317 C   0  0  0  0  0  0  0  0  0  0  0  0
  -25.6950   -1.4569  -10.8715 C   0  0  0  0  0  0  0  0  0  0  0  0
  -23.9901   -1.1274  -12.5652 N   0  0  0  0  0  0  0  0  0  0  0  0
  -23.4514    0.0983  -12.8874 C   0  0  0  0  0  0  0  0  0  0  0  0
  -24.0266    1.1799  -12.9108 O   0  0  0  0  0  0  0  0  0  0  0  0
  -22.1239    0.0128  -13.2451 N   0  0  0  0  0  0  0  0  0  0  0  0
  -23.3632   -1.9172  -12.5831 H   0  0  0  0  0  0  0  0  0  0  0  0
  -21.5822   -0.7095  -12.7932 H   0  0  0  0  0  0  0  0  0  0  0  0
  -21.4185    1.2615  -13.5690 C   0  0  0  0  0  0  0  0  0  0  0  0
  -20.3731    1.1679  -14.6908 C   0  0  0  0  0  0  0  0  0  0  0  0
  -19.1145    1.3481  -14.2275 F   0  0  0  0  0  0  0  0  0  0  0  0
  -20.4082   -0.0696  -15.2469 F   0  0  0  0  0  0  0  0  0  0  0  0
  -20.5917    2.0564  -15.6809 F   0  0  0  0  0  0  0  0  0  0  0  0
 16 17  1  0  0  0
 17 10  1  0  0  0
 17 18  1  0  0  0
 10 11  1  0  0  0
 10 15  2  0  0  0
 11 12  2  0  0  0
 12  1  1  0  0  0
 12 13  1  0  0  0
  1  2  1  0  0  0
  1  9  2  0  0  0
  2  3  2  0  0  0
  3  4  1  0  0  0
  4  5  1  0  0  0
  4  8  1  0  0  0
  5 19  1  0  0  0
  5  6  2  0  0  0
 19 20  1  0  0  0
 19 24  2  0  0  0
 20 21  2  0  0  0
 21 22  1  0  0  0
 22 23  2  0  0  0
 23 25  1  0  0  0
 23 24  1  0  0  0
 25 26  1  0  0  0
 25 29  1  0  0  0
 26 27  2  0  0  0
 26 28  1  0  0  0
 28 31  1  0  0  0
 28 30  1  0  0  0
 31 32  1  0  0  0
 32 33  1  0  0  0
 32 34  1  0  0  0
 32 35  1  0  0  0
  6  7  1  0  0  0
  7  8  2  0  0  0
  8  9  1  0  0  0
 13 14  2  0  0  0
 14 15  1  0  0  0
M  END
> <minimizedAffinity>
-9.64499

$$$$
