CHEMBL212054


 33 38  0  0  0  0  0  0  0  0999 V2000
  -29.0805   -4.7027   -5.2938 C   0  0  0  0  0  0  0  0  0  0  0  0
  -28.4191   -5.4707   -4.4622 N   0  0  0  0  0  0  0  0  0  0  0  0
  -28.3077   -6.6703   -5.1133 C   0  0  0  0  0  0  0  0  0  0  0  0
  -27.6461   -7.8299   -4.7161 C   0  0  0  0  0  0  0  0  0  0  0  0
  -27.6421   -8.9593   -5.5520 C   0  0  0  0  0  0  0  0  0  0  0  0
  -28.3259   -8.8928   -6.7790 C   0  0  0  0  0  0  0  0  0  0  0  0
  -29.0083   -7.7430   -7.2015 C   0  0  0  0  0  0  0  0  0  0  0  0
  -28.9648   -6.6538   -6.3332 C   0  0  0  0  0  0  0  0  0  0  0  0
  -29.4922   -5.3968   -6.3989 N   0  0  0  0  0  0  0  0  0  0  0  0
  -30.0683   -5.0341   -7.1431 H   0  0  0  0  0  0  0  0  0  0  0  0
  -28.2758    1.6040   -6.9305 F   0  0  0  0  0  0  0  0  0  0  0  0
  -28.5314    0.3688   -6.4751 C   0  0  0  0  0  0  0  0  0  0  0  0
  -27.9691   -0.7235   -7.1961 C   0  0  0  0  0  0  0  0  0  0  0  0
  -28.1502   -2.0683   -6.8308 C   0  0  0  0  0  0  0  0  0  0  0  0
  -28.9495   -2.1765   -5.6932 C   0  0  0  0  0  0  0  0  0  0  0  0
  -29.3179   -3.3300   -5.0570 C   0  0  0  0  0  0  0  0  0  0  0  0
  -30.0120   -2.9145   -3.9529 N   0  0  0  0  0  0  0  0  0  0  0  0
  -30.1909   -1.5802   -3.8751 N   0  0  0  0  0  0  0  0  0  0  0  0
  -29.5193   -1.0873   -4.9290 C   0  0  0  0  0  0  0  0  0  0  0  0
  -29.3222    0.2432   -5.3203 C   0  0  0  0  0  0  0  0  0  0  0  0
  -30.3977   -3.5085   -3.2249 H   0  0  0  0  0  0  0  0  0  0  0  0
  -27.0006  -10.1064   -5.0921 N   0  0  0  0  0  0  0  0  0  0  0  0
  -26.1297  -10.8448   -5.9967 C   0  0  0  0  0  0  0  0  0  0  0  0
  -26.0771  -12.2924   -5.5329 C   0  0  0  0  0  0  0  0  0  0  0  0
  -25.6624  -12.4659   -4.0550 C   0  0  0  0  0  0  0  0  0  0  0  0
  -26.5059  -11.5314   -3.1641 C   0  0  0  0  0  0  0  0  0  0  0  0
  -26.6138  -10.0983   -3.6755 C   0  0  0  0  0  0  0  0  0  0  0  0
  -24.2084  -12.4656   -3.7414 N   0  0  0  0  0  0  0  0  0  0  0  0
  -23.4395  -11.7252   -4.7536 C   0  0  0  0  0  0  0  0  0  0  0  0
  -21.9314  -11.8016   -4.5241 C   0  0  0  0  0  0  0  0  0  0  0  0
  -21.5765  -11.3171   -3.1268 C   0  0  0  0  0  0  0  0  0  0  0  0
  -22.3352  -12.1454   -2.1054 C   0  0  0  0  0  0  0  0  0  0  0  0
  -23.8391  -12.1030   -2.3732 C   0  0  0  0  0  0  0  0  0  0  0  0
 11 12  1  0  0  0
 12 13  1  0  0  0
 12 20  2  0  0  0
 13 14  2  0  0  0
 14 15  1  0  0  0
 15 16  2  0  0  0
 15 19  1  0  0  0
 16  1  1  0  0  0
 16 17  1  0  0  0
  1  2  2  0  0  0
  1  9  1  0  0  0
  2  3  1  0  0  0
  3  4  1  0  0  0
  3  8  2  0  0  0
  4  5  2  0  0  0
  5 22  1  0  0  0
  5  6  1  0  0  0
 22 23  1  0  0  0
 22 27  1  0  0  0
 23 24  1  0  0  0
 24 25  1  0  0  0
 25 28  1  0  0  0
 25 26  1  0  0  0
 28 29  1  0  0  0
 28 33  1  0  0  0
 29 30  1  0  0  0
 30 31  1  0  0  0
 31 32  1  0  0  0
 32 33  1  0  0  0
 26 27  1  0  0  0
  6  7  2  0  0  0
  7  8  1  0  0  0
  8  9  1  0  0  0
  9 10  1  0  0  0
 17 18  1  0  0  0
 17 21  1  0  0  0
 18 19  2  0  0  0
 19 20  1  0  0  0
M  END
> <minimizedAffinity>
-9.09819

$$$$
