CHEMBL150315


 24 26  0  0  0  0  0  0  0  0999 V2000
  -30.5372   -7.9846   -7.5083 C   0  0  0  0  0  0  0  0  0  0  0  0
  -31.2881   -7.6354   -6.3754 C   0  0  0  0  0  0  0  0  0  0  0  0
  -30.8779   -6.6612   -5.4781 C   0  0  0  0  0  0  0  0  0  0  0  0
  -31.7020   -6.3110   -4.4856 N   0  0  0  0  0  0  0  0  0  0  0  0
  -31.3045   -5.2969   -3.7111 C   0  0  0  0  0  0  0  0  0  0  0  0
  -30.1791   -4.6042   -3.8404 N   0  0  0  0  0  0  0  0  0  0  0  0
  -29.3424   -4.9801   -4.8296 C   0  0  0  0  0  0  0  0  0  0  0  0
  -29.6384   -6.0532   -5.6816 C   0  0  0  0  0  0  0  0  0  0  0  0
  -28.8147   -6.4935   -6.7392 C   0  0  0  0  0  0  0  0  0  0  0  0
  -29.2534   -7.4456   -7.6640 C   0  0  0  0  0  0  0  0  0  0  0  0
  -32.1988   -9.5799   -8.0665 C   0  0  0  0  0  0  0  0  0  0  0  0
  -31.0333   -8.8443   -8.4527 O   0  0  0  0  0  0  0  0  0  0  0  0
  -28.1789   -4.2027   -5.0630 N   0  0  0  0  0  0  0  0  0  0  0  0
  -27.4489   -4.4260   -4.3908 H   0  0  0  0  0  0  0  0  0  0  0  0
  -28.1905   -2.8390   -5.4221 C   0  0  0  0  0  0  0  0  0  0  0  0
  -28.1265   -2.4487   -6.7674 C   0  0  0  0  0  0  0  0  0  0  0  0
  -28.2262   -1.1039   -7.1266 C   0  0  0  0  0  0  0  0  0  0  0  0
  -28.3731   -0.1359   -6.1358 C   0  0  0  0  0  0  0  0  0  0  0  0
  -28.5663    1.5132   -6.5851 Cl  0  0  0  0  0  0  0  0  0  0  0  0
  -28.3772   -0.4949   -4.7907 C   0  0  0  0  0  0  0  0  0  0  0  0
  -28.2748   -1.8403   -4.4472 C   0  0  0  0  0  0  0  0  0  0  0  0
  -28.2925   -2.1835   -3.1489 F   0  0  0  0  0  0  0  0  0  0  0  0
  -28.3127   -7.6644   -8.6275 O   0  0  0  0  0  0  0  0  0  0  0  0
  -27.6561   -8.9162   -8.7146 C   0  0  0  0  0  0  0  0  0  0  0  0
 11 12  1  0  0  0
 12  1  1  0  0  0
  1  2  1  0  0  0
  1 10  2  0  0  0
  2  3  2  0  0  0
  3  4  1  0  0  0
  3  8  1  0  0  0
  4  5  2  0  0  0
  5  6  1  0  0  0
  6  7  2  0  0  0
  7 13  1  0  0  0
  7  8  1  0  0  0
 13 15  1  0  0  0
 13 14  1  0  0  0
 15 16  1  0  0  0
 15 21  2  0  0  0
 16 17  2  0  0  0
 17 18  1  0  0  0
 18 19  1  0  0  0
 18 20  2  0  0  0
 20 21  1  0  0  0
 21 22  1  0  0  0
  8  9  2  0  0  0
  9 10  1  0  0  0
 10 23  1  0  0  0
 23 24  1  0  0  0
M  END
> <minimizedAffinity>
-7.46527

$$$$
