CHEMBL2011292


 27 30  0  0  0  0  0  0  0  0999 V2000
  -27.5152   -4.8500   -3.8331 N   0  0  0  0  0  0  0  0  0  0  0  0
  -28.2455   -5.2777   -4.9064 C   0  0  0  0  0  0  0  0  0  0  0  0
  -28.5747   -6.5654   -5.2969 C   0  0  0  0  0  0  0  0  0  0  0  0
  -29.4520   -6.4030   -6.4257 C   0  0  0  0  0  0  0  0  0  0  0  0
  -29.7311   -5.1059   -6.6323 N   0  0  0  0  0  0  0  0  0  0  0  0
  -28.9005   -4.4196   -5.8026 N   0  0  0  0  0  0  0  0  0  0  0  0
  -27.3248   -5.5130   -3.0838 H   0  0  0  0  0  0  0  0  0  0  0  0
  -27.6837   -3.9180   -3.4559 H   0  0  0  0  0  0  0  0  0  0  0  0
  -28.1289   -7.7788   -4.6151 C   0  0  0  0  0  0  0  0  0  0  0  0
  -29.0665   -8.6635   -4.0482 C   0  0  0  0  0  0  0  0  0  0  0  0
  -28.6730   -9.9180   -3.5782 C   0  0  0  0  0  0  0  0  0  0  0  0
  -27.3281  -10.2573   -3.5881 C   0  0  0  0  0  0  0  0  0  0  0  0
  -26.9486  -11.4641   -3.1497 F   0  0  0  0  0  0  0  0  0  0  0  0
  -26.3719   -9.3667   -4.0601 C   0  0  0  0  0  0  0  0  0  0  0  0
  -26.7724   -8.1376   -4.5900 C   0  0  0  0  0  0  0  0  0  0  0  0
  -30.0888   -7.4543   -7.2389 C   0  0  0  0  0  0  0  0  0  0  0  0
  -31.4184   -7.8149   -7.0201 C   0  0  0  0  0  0  0  0  0  0  0  0
  -31.9108   -8.9363   -7.6711 C   0  0  0  0  0  0  0  0  0  0  0  0
  -31.1840   -9.7141   -8.5002 N   0  0  0  0  0  0  0  0  0  0  0  0
  -29.9234   -9.3146   -8.7442 C   0  0  0  0  0  0  0  0  0  0  0  0
  -29.3582   -8.1812   -8.1858 C   0  0  0  0  0  0  0  0  0  0  0  0
  -28.8205   -2.9962   -5.8777 C   0  0  0  0  0  0  0  0  0  0  0  0
  -29.5980   -2.2105   -5.0162 C   0  0  0  0  0  0  0  0  0  0  0  0
  -29.4739   -0.8176   -5.0358 C   0  0  0  0  0  0  0  0  0  0  0  0
  -28.6049   -0.2002   -5.9436 C   0  0  0  0  0  0  0  0  0  0  0  0
  -27.8688   -0.9768   -6.8364 C   0  0  0  0  0  0  0  0  0  0  0  0
  -27.9721   -2.3670   -6.8038 C   0  0  0  0  0  0  0  0  0  0  0  0
  1  2  1  0  0  0
  1  7  1  0  0  0
  1  8  1  0  0  0
  2  3  2  0  0  0
  2  6  1  0  0  0
  3  9  1  0  0  0
  3  4  1  0  0  0
  9 10  1  0  0  0
  9 15  2  0  0  0
 10 11  2  0  0  0
 11 12  1  0  0  0
 12 13  1  0  0  0
 12 14  2  0  0  0
 14 15  1  0  0  0
  4 16  1  0  0  0
  4  5  2  0  0  0
 16 17  1  0  0  0
 16 21  2  0  0  0
 17 18  2  0  0  0
 18 19  1  0  0  0
 19 20  2  0  0  0
 20 21  1  0  0  0
  5  6  1  0  0  0
  6 22  1  0  0  0
 22 23  1  0  0  0
 22 27  2  0  0  0
 23 24  2  0  0  0
 24 25  1  0  0  0
 25 26  2  0  0  0
 26 27  1  0  0  0
M  END
> <minimizedAffinity>
-8.64426

$$$$
