CHEMBL3940725


 34 38  0  0  0  0  0  0  0  0999 V2000
  -15.6141    2.3850  -16.2884 N   0  0  0  0  0  0  0  0  0  0  0  0
  -16.9863    2.3738  -15.8051 C   0  0  0  0  0  0  0  0  0  0  0  0
  -17.3713    1.2266  -15.1923 C   0  0  0  0  0  0  0  0  0  0  0  0
  -18.6406    1.1393  -14.7638 C   0  0  0  0  0  0  0  0  0  0  0  0
  -19.6063    2.0553  -14.9232 C   0  0  0  0  0  0  0  0  0  0  0  0
  -20.6036    1.3501  -15.2246 N   0  0  0  0  0  0  0  0  0  0  0  0
  -21.3083    1.0974  -14.1653 C   0  0  0  0  0  0  0  0  0  0  0  0
  -22.1684    1.9787  -13.7869 C   0  0  0  0  0  0  0  0  0  0  0  0
  -21.4071    3.2719  -14.5322 N   0  0  0  0  0  0  0  0  0  0  0  0
  -19.7513    3.2936  -15.1859 C   0  0  0  0  0  0  0  0  0  0  0  0
  -18.0965    3.4359  -15.8349 C   0  0  0  0  0  0  0  0  0  0  0  0
  -23.4349    0.6660  -13.4516 C   0  0  0  0  0  0  0  0  0  0  0  0
  -23.9406   -0.7144  -14.1117 C   0  0  0  0  0  0  0  0  0  0  0  0
  -24.7887   -1.5014  -13.3770 N   0  0  0  0  0  0  0  0  0  0  0  0
  -24.8899   -0.8959  -12.1825 N   0  0  0  0  0  0  0  0  0  0  0  0
  -25.6982   -1.5149  -11.0679 C   0  0  0  0  0  0  0  0  0  0  0  0
  -24.0725    0.3191  -12.2164 C   0  0  0  0  0  0  0  0  0  0  0  0
  -14.3946    5.2080  -18.5487 C   0  0  0  0  0  0  0  0  0  0  0  0
  -13.5335    5.8211  -17.7072 C   0  0  0  0  0  0  0  0  0  0  0  0
  -13.3585    5.3257  -16.4188 C   0  0  0  0  0  0  0  0  0  0  0  0
  -13.9682    4.1403  -16.0021 C   0  0  0  0  0  0  0  0  0  0  0  0
  -14.9178    3.5108  -16.7663 C   0  0  0  0  0  0  0  0  0  0  0  0
  -15.0845    4.1140  -18.0274 C   0  0  0  0  0  0  0  0  0  0  0  0
  -14.5410    7.0321  -20.0392 C   0  0  0  0  0  0  0  0  0  0  0  0
  -14.7624    5.6450  -19.7903 O   0  0  0  0  0  0  0  0  0  0  0  0
  -12.6229    5.9893  -15.4788 O   0  0  0  0  0  0  0  0  0  0  0  0
  -11.7723    5.1379  -14.7167 C   0  0  0  0  0  0  0  0  0  0  0  0
  -15.0994    0.9820  -16.7208 C   0  0  0  0  0  0  0  0  0  0  0  0
  -13.8223    0.3595  -16.1264 C   0  0  0  0  0  0  0  0  0  0  0  0
  -12.5340    0.5292  -16.5862 C   0  0  0  0  0  0  0  0  0  0  0  0
  -11.5574    0.2215  -15.5981 C   0  0  0  0  0  0  0  0  0  0  0  0
  -12.1155   -0.2587  -14.4419 C   0  0  0  0  0  0  0  0  0  0  0  0
  -11.2342   -0.6378  -13.0037 Cl  0  0  0  0  0  0  0  0  0  0  0  0
  -13.7852   -0.5733  -14.6237 S   0  0  0  0  0  0  0  0  0  0  0  0
 24 25  1  0  0  0
 25 18  1  0  0  0
 18 19  1  0  0  0
 18 23  2  0  0  0
 19 20  2  0  0  0
 20 26  1  0  0  0
 20 21  1  0  0  0
 26 27  1  0  0  0
 21 22  2  0  0  0
 22  1  1  0  0  0
 22 23  1  0  0  0
  1 28  1  0  0  0
  1  2  1  0  0  0
 28 29  1  0  0  0
 29 30  2  0  0  0
 29 34  1  0  0  0
 30 31  1  0  0  0
 31 32  2  0  0  0
 32 33  1  0  0  0
 32 34  1  0  0  0
  2  3  1  0  0  0
  2 11  2  0  0  0
  3  4  2  0  0  0
  4  5  1  0  0  0
  5  6  1  0  0  0
  5 10  2  0  0  0
  6  7  2  0  0  0
  7  8  1  0  0  0
  8 12  1  0  0  0
  8  9  2  0  0  0
 12 13  1  0  0  0
 12 17  2  0  0  0
 13 14  2  0  0  0
 14 15  1  0  0  0
 15 16  1  0  0  0
 15 17  1  0  0  0
  9 10  1  0  0  0
 10 11  1  0  0  0
M  END
> <minimizedAffinity>
-9.42765

$$$$
