CHEMBL382070


 24 26  0  0  0  0  0  0  0  0999 V2000
  -27.8645   -3.2522   -8.5306 C   0  0  0  0  0  0  0  0  0  0  0  0
  -28.2149   -2.6360   -7.2295 C   0  0  0  0  0  0  0  0  0  0  0  0
  -27.6366   -1.4675   -6.8669 N   0  0  0  0  0  0  0  0  0  0  0  0
  -28.1094   -1.2274   -5.6162 N   0  0  0  0  0  0  0  0  0  0  0  0
  -28.9321   -2.2087   -5.1999 C   0  0  0  0  0  0  0  0  0  0  0  0
  -29.7640   -2.5946   -3.8262 S   0  0  0  0  0  0  0  0  0  0  0  0
  -30.3279   -4.0698   -4.5907 C   0  0  0  0  0  0  0  0  0  0  0  0
  -29.8515   -4.1971   -5.9067 C   0  0  0  0  0  0  0  0  0  0  0  0
  -29.0436   -3.0880   -6.1981 C   0  0  0  0  0  0  0  0  0  0  0  0
  -27.8001   -0.3952   -5.1269 H   0  0  0  0  0  0  0  0  0  0  0  0
  -31.2370   -4.9640   -3.8958 C   0  0  0  0  0  0  0  0  0  0  0  0
  -31.6674   -4.5668   -2.6583 N   0  0  0  0  0  0  0  0  0  0  0  0
  -31.6545   -6.0183   -4.3718 O   0  0  0  0  0  0  0  0  0  0  0  0
  -31.4178   -3.6626   -2.2813 H   0  0  0  0  0  0  0  0  0  0  0  0
  -32.3815   -5.1154   -2.2007 H   0  0  0  0  0  0  0  0  0  0  0  0
  -30.1566   -5.2870   -6.7185 N   0  0  0  0  0  0  0  0  0  0  0  0
  -29.3622   -6.4214   -6.7430 C   0  0  0  0  0  0  0  0  0  0  0  0
  -28.2685   -6.4775   -6.1809 O   0  0  0  0  0  0  0  0  0  0  0  0
  -30.6491   -5.0927   -7.5880 H   0  0  0  0  0  0  0  0  0  0  0  0
  -29.8788   -7.5478   -7.5115 C   0  0  0  0  0  0  0  0  0  0  0  0
  -29.1803   -8.2788   -8.4572 C   0  0  0  0  0  0  0  0  0  0  0  0
  -29.9197   -9.3905   -8.9508 C   0  0  0  0  0  0  0  0  0  0  0  0
  -31.1711   -9.4638   -8.3826 C   0  0  0  0  0  0  0  0  0  0  0  0
  -31.4514   -8.1865   -7.2797 S   0  0  0  0  0  0  0  0  0  0  0  0
  1  2  1  0  0  0
  2  3  2  0  0  0
  2  9  1  0  0  0
  3  4  1  0  0  0
  4  5  1  0  0  0
  4 10  1  0  0  0
  5  6  1  0  0  0
  5  9  2  0  0  0
  6  7  1  0  0  0
  7 11  1  0  0  0
  7  8  2  0  0  0
 11 12  1  0  0  0
 11 13  2  0  0  0
 12 14  1  0  0  0
 12 15  1  0  0  0
  8 16  1  0  0  0
  8  9  1  0  0  0
 16 17  1  0  0  0
 16 19  1  0  0  0
 17 18  2  0  0  0
 17 20  1  0  0  0
 20 21  2  0  0  0
 20 24  1  0  0  0
 21 22  1  0  0  0
 22 23  2  0  0  0
 23 24  1  0  0  0
M  END
> <minimizedAffinity>
-7.05396

$$$$
