CHEMBL246151


 36 39  0  0  0  0  0  0  0  0999 V2000
  -23.6439   -0.7312  -13.3775 C   0  0  0  0  0  0  0  0  0  0  0  0
  -24.1600   -0.9996  -14.6424 C   0  0  0  0  0  0  0  0  0  0  0  0
  -25.4377   -1.5357  -14.7675 C   0  0  0  0  0  0  0  0  0  0  0  0
  -26.1945   -1.8738  -13.6357 C   0  0  0  0  0  0  0  0  0  0  0  0
  -27.8562   -2.2193  -13.9689 Cl  0  0  0  0  0  0  0  0  0  0  0  0
  -25.6402   -1.7418  -12.3463 C   0  0  0  0  0  0  0  0  0  0  0  0
  -24.3606   -1.1400  -12.2402 C   0  0  0  0  0  0  0  0  0  0  0  0
  -26.2665   -2.0828  -11.1089 N   0  0  0  0  0  0  0  0  0  0  0  0
  -27.4024   -1.5333  -10.5348 C   0  0  0  0  0  0  0  0  0  0  0  0
  -28.2081   -0.7730  -11.0542 O   0  0  0  0  0  0  0  0  0  0  0  0
  -25.8662   -2.8771  -10.6293 H   0  0  0  0  0  0  0  0  0  0  0  0
  -27.6705   -1.9650   -9.1319 C   0  0  0  0  0  0  0  0  0  0  0  0
  -27.9527   -3.2979   -8.8180 C   0  0  0  0  0  0  0  0  0  0  0  0
  -28.1722   -3.6621   -7.4907 C   0  0  0  0  0  0  0  0  0  0  0  0
  -28.1026   -2.7063   -6.4711 C   0  0  0  0  0  0  0  0  0  0  0  0
  -27.8359   -1.3597   -6.7669 C   0  0  0  0  0  0  0  0  0  0  0  0
  -27.6400   -0.9990   -8.1128 C   0  0  0  0  0  0  0  0  0  0  0  0
  -27.6735   -0.3146   -5.6738 C   0  0  0  0  0  0  0  0  0  0  0  0
  -28.5820    0.9071   -5.8446 C   0  0  0  0  0  0  0  0  0  0  0  0
  -27.8891   -0.9516   -4.2967 C   0  0  0  0  0  0  0  0  0  0  0  0
  -22.4193   -0.1070  -13.2033 O   0  0  0  0  0  0  0  0  0  0  0  0
  -21.2234    1.8307  -14.0470 C   0  0  0  0  0  0  0  0  0  0  0  0
  -21.2915    3.2181  -14.2997 C   0  0  0  0  0  0  0  0  0  0  0  0
  -22.4192    3.9653  -13.9667 C   0  0  0  0  0  0  0  0  0  0  0  0
  -23.4554    3.3214  -13.3287 C   0  0  0  0  0  0  0  0  0  0  0  0
  -23.4392    2.0095  -13.0318 N   0  0  0  0  0  0  0  0  0  0  0  0
  -22.3608    1.2760  -13.4267 C   0  0  0  0  0  0  0  0  0  0  0  0
  -17.6040    0.7219  -14.4057 C   0  0  0  0  0  0  0  0  0  0  0  0
  -18.7258    1.4665  -14.0393 C   0  0  0  0  0  0  0  0  0  0  0  0
  -20.0097    1.0765  -14.4505 C   0  0  0  0  0  0  0  0  0  0  0  0
  -20.0806   -0.0337  -15.2994 C   0  0  0  0  0  0  0  0  0  0  0  0
  -18.9149   -0.6919  -15.6567 C   0  0  0  0  0  0  0  0  0  0  0  0
  -17.6920   -0.3441  -15.2152 N   0  0  0  0  0  0  0  0  0  0  0  0
  -15.6801    0.2479  -12.9926 C   0  0  0  0  0  0  0  0  0  0  0  0
  -16.3179    1.0566  -14.0078 N   0  0  0  0  0  0  0  0  0  0  0  0
  -15.7816    1.1820  -14.8642 H   0  0  0  0  0  0  0  0  0  0  0  0
 34 35  1  0  0  0
 35 28  1  0  0  0
 35 36  1  0  0  0
 28 29  1  0  0  0
 28 33  2  0  0  0
 29 30  2  0  0  0
 30 22  1  0  0  0
 30 31  1  0  0  0
 22 23  1  0  0  0
 22 27  2  0  0  0
 23 24  2  0  0  0
 24 25  1  0  0  0
 25 26  2  0  0  0
 26 27  1  0  0  0
 27 21  1  0  0  0
 21  1  1  0  0  0
  1  2  1  0  0  0
  1  7  2  0  0  0
  2  3  2  0  0  0
  3  4  1  0  0  0
  4  5  1  0  0  0
  4  6  2  0  0  0
  6  8  1  0  0  0
  6  7  1  0  0  0
  8  9  1  0  0  0
  8 11  1  0  0  0
  9 10  2  0  0  0
  9 12  1  0  0  0
 12 13  1  0  0  0
 12 17  2  0  0  0
 13 14  2  0  0  0
 14 15  1  0  0  0
 15 16  2  0  0  0
 16 18  1  0  0  0
 16 17  1  0  0  0
 18 19  1  0  0  0
 18 20  1  0  0  0
 31 32  2  0  0  0
 32 33  1  0  0  0
M  END
> <minimizedAffinity>
-6.79393

$$$$
