CHEMBL2348992


 36 40  0  0  0  0  0  0  0  0999 V2000
  -28.2251   -1.4939   -7.1415 C   0  0  0  0  0  0  0  0  0  0  0  0
  -29.0368   -1.8263   -6.0324 C   0  0  0  0  0  0  0  0  0  0  0  0
  -29.6447   -3.0645   -5.9146 C   0  0  0  0  0  0  0  0  0  0  0  0
  -29.4899   -3.9878   -6.9373 C   0  0  0  0  0  0  0  0  0  0  0  0
  -28.6072   -3.7244   -7.9913 C   0  0  0  0  0  0  0  0  0  0  0  0
  -27.9355   -2.4843   -8.1130 C   0  0  0  0  0  0  0  0  0  0  0  0
  -26.9795   -2.2415   -9.1646 N   0  0  0  0  0  0  0  0  0  0  0  0
  -27.2705   -1.5491  -10.3470 C   0  0  0  0  0  0  0  0  0  0  0  0
  -28.3407   -0.9885  -10.5180 O   0  0  0  0  0  0  0  0  0  0  0  0
  -26.0394   -2.5745   -9.0295 H   0  0  0  0  0  0  0  0  0  0  0  0
  -26.2560   -1.4599  -11.3946 C   0  0  0  0  0  0  0  0  0  0  0  0
  -24.9088   -1.1297  -11.4191 C   0  0  0  0  0  0  0  0  0  0  0  0
  -24.4991   -1.2585  -12.7725 C   0  0  0  0  0  0  0  0  0  0  0  0
  -23.1620   -1.0622  -13.3901 C   0  0  0  0  0  0  0  0  0  0  0  0
  -25.5130   -1.6277  -13.5548 N   0  0  0  0  0  0  0  0  0  0  0  0
  -26.5519   -1.7569  -12.7128 N   0  0  0  0  0  0  0  0  0  0  0  0
  -27.8126   -2.2204  -13.2596 C   0  0  0  0  0  0  0  0  0  0  0  0
  -28.7621    0.8761   -6.4280 C   0  0  0  0  0  0  0  0  0  0  0  0
  -27.8413   -0.0334   -7.2218 C   0  0  0  0  0  0  0  0  0  0  0  0
  -30.1497   -5.2356   -6.8775 O   0  0  0  0  0  0  0  0  0  0  0  0
  -29.6753   -6.1996   -5.9853 C   0  0  0  0  0  0  0  0  0  0  0  0
  -30.3899   -6.0545   -4.6951 C   0  0  0  0  0  0  0  0  0  0  0  0
  -30.0508   -6.9118   -3.7216 C   0  0  0  0  0  0  0  0  0  0  0  0
  -29.0651   -7.8903   -3.9754 C   0  0  0  0  0  0  0  0  0  0  0  0
  -28.5636   -8.8357   -3.2144 N   0  0  0  0  0  0  0  0  0  0  0  0
  -27.6753   -9.5083   -3.9991 C   0  0  0  0  0  0  0  0  0  0  0  0
  -27.6318   -8.9744   -5.2661 C   0  0  0  0  0  0  0  0  0  0  0  0
  -28.5072   -7.9182   -5.2405 N   0  0  0  0  0  0  0  0  0  0  0  0
  -28.7728   -7.0833   -6.2813 N   0  0  0  0  0  0  0  0  0  0  0  0
  -26.9416  -10.5923   -3.5752 N   0  0  0  0  0  0  0  0  0  0  0  0
  -25.6077  -10.5289   -3.2301 C   0  0  0  0  0  0  0  0  0  0  0  0
  -24.8802   -9.5466   -3.2534 O   0  0  0  0  0  0  0  0  0  0  0  0
  -27.4213  -11.4748   -3.5379 H   0  0  0  0  0  0  0  0  0  0  0  0
  -24.9847  -11.8162   -2.7904 C   0  0  0  0  0  0  0  0  0  0  0  0
  -24.9524  -12.1615   -1.3187 C   0  0  0  0  0  0  0  0  0  0  0  0
  -23.6674  -11.9771   -2.0732 C   0  0  0  0  0  0  0  0  0  0  0  0
 18 19  1  0  0  0
 19  1  1  0  0  0
  1  2  1  0  0  0
  1  6  2  0  0  0
  2  3  2  0  0  0
  3  4  1  0  0  0
  4 20  1  0  0  0
  4  5  2  0  0  0
 20 21  1  0  0  0
 21 22  1  0  0  0
 21 29  2  0  0  0
 22 23  2  0  0  0
 23 24  1  0  0  0
 24 25  2  0  0  0
 24 28  1  0  0  0
 25 26  1  0  0  0
 26 30  1  0  0  0
 26 27  2  0  0  0
 30 31  1  0  0  0
 30 33  1  0  0  0
 31 32  2  0  0  0
 31 34  1  0  0  0
 34 35  1  0  0  0
 34 36  1  0  0  0
 35 36  1  0  0  0
 27 28  1  0  0  0
 28 29  1  0  0  0
  5  6  1  0  0  0
  6  7  1  0  0  0
  7  8  1  0  0  0
  7 10  1  0  0  0
  8  9  2  0  0  0
  8 11  1  0  0  0
 11 12  2  0  0  0
 11 16  1  0  0  0
 12 13  1  0  0  0
 13 14  1  0  0  0
 13 15  2  0  0  0
 15 16  1  0  0  0
 16 17  1  0  0  0
M  END
> <minimizedAffinity>
-9.93412

$$$$
