CHEMBL2011296


 28 31  0  0  0  0  0  0  0  0999 V2000
  -28.8693   -4.5317   -5.7265 N   0  0  0  0  0  0  0  0  0  0  0  0
  -29.7652   -5.2133   -6.4806 N   0  0  0  0  0  0  0  0  0  0  0  0
  -29.4793   -6.5060   -6.2888 C   0  0  0  0  0  0  0  0  0  0  0  0
  -28.5483   -6.6807   -5.2056 C   0  0  0  0  0  0  0  0  0  0  0  0
  -28.1617   -5.3846   -4.8657 C   0  0  0  0  0  0  0  0  0  0  0  0
  -27.3430   -4.9405   -3.8709 N   0  0  0  0  0  0  0  0  0  0  0  0
  -27.1448   -5.5651   -3.0891 H   0  0  0  0  0  0  0  0  0  0  0  0
  -27.4267   -3.9785   -3.5481 H   0  0  0  0  0  0  0  0  0  0  0  0
  -28.7363    1.1809   -6.3275 C   0  0  0  0  0  0  0  0  0  0  0  0
  -28.7366   -0.3100   -6.1511 C   0  0  0  0  0  0  0  0  0  0  0  0
  -29.5093   -0.9082   -5.1512 C   0  0  0  0  0  0  0  0  0  0  0  0
  -29.5478   -2.2999   -5.0229 C   0  0  0  0  0  0  0  0  0  0  0  0
  -28.7852   -3.1155   -5.8732 C   0  0  0  0  0  0  0  0  0  0  0  0
  -28.0117   -2.5214   -6.8766 C   0  0  0  0  0  0  0  0  0  0  0  0
  -27.9979   -1.1270   -7.0180 C   0  0  0  0  0  0  0  0  0  0  0  0
  -28.1038   -7.9174   -4.5502 C   0  0  0  0  0  0  0  0  0  0  0  0
  -26.7558   -8.3011   -4.5252 C   0  0  0  0  0  0  0  0  0  0  0  0
  -26.3746   -9.5539   -4.0276 C   0  0  0  0  0  0  0  0  0  0  0  0
  -27.3441  -10.4495   -3.5929 C   0  0  0  0  0  0  0  0  0  0  0  0
  -26.9833  -11.6757   -3.1943 F   0  0  0  0  0  0  0  0  0  0  0  0
  -28.6810  -10.0909   -3.5781 C   0  0  0  0  0  0  0  0  0  0  0  0
  -29.0509   -8.8122   -4.0078 C   0  0  0  0  0  0  0  0  0  0  0  0
  -30.1465   -7.5277   -7.1088 C   0  0  0  0  0  0  0  0  0  0  0  0
  -29.4418   -8.2522   -8.0769 C   0  0  0  0  0  0  0  0  0  0  0  0
  -30.0724   -9.3124   -8.7022 C   0  0  0  0  0  0  0  0  0  0  0  0
  -31.3605   -9.6486   -8.4844 N   0  0  0  0  0  0  0  0  0  0  0  0
  -32.0489   -8.8820   -7.6141 C   0  0  0  0  0  0  0  0  0  0  0  0
  -31.4969   -7.8255   -6.9083 C   0  0  0  0  0  0  0  0  0  0  0  0
  9 10  1  0  0  0
 10 11  1  0  0  0
 10 15  2  0  0  0
 11 12  2  0  0  0
 12 13  1  0  0  0
 13  1  1  0  0  0
 13 14  2  0  0  0
  1  2  1  0  0  0
  1  5  1  0  0  0
  2  3  2  0  0  0
  3 23  1  0  0  0
  3  4  1  0  0  0
 23 24  1  0  0  0
 23 28  2  0  0  0
 24 25  2  0  0  0
 25 26  1  0  0  0
 26 27  2  0  0  0
 27 28  1  0  0  0
  4 16  1  0  0  0
  4  5  2  0  0  0
 16 17  1  0  0  0
 16 22  2  0  0  0
 17 18  2  0  0  0
 18 19  1  0  0  0
 19 20  1  0  0  0
 19 21  2  0  0  0
 21 22  1  0  0  0
  5  6  1  0  0  0
  6  7  1  0  0  0
  6  8  1  0  0  0
 14 15  1  0  0  0
M  END
> <minimizedAffinity>
-9.25126

$$$$
