CHEMBL1269633


 21 23  0  0  0  0  0  0  0  0999 V2000
  -28.4682   -1.1093  -10.2740 O   0  0  0  0  0  0  0  0  0  0  0  0
  -27.4903   -1.8482  -10.1629 C   0  0  0  0  0  0  0  0  0  0  0  0
  -27.2759   -2.7581   -9.1436 N   0  0  0  0  0  0  0  0  0  0  0  0
  -26.3354   -3.1071   -8.9657 H   0  0  0  0  0  0  0  0  0  0  0  0
  -28.2059   -3.0268   -8.0963 C   0  0  0  0  0  0  0  0  0  0  0  0
  -29.0193   -4.1704   -8.1245 C   0  0  0  0  0  0  0  0  0  0  0  0
  -29.9814   -4.3903   -7.1489 C   0  0  0  0  0  0  0  0  0  0  0  0
  -30.1337   -3.4716   -6.1221 C   0  0  0  0  0  0  0  0  0  0  0  0
  -29.2977   -2.3464   -6.0527 C   0  0  0  0  0  0  0  0  0  0  0  0
  -29.4522   -1.4248   -5.0111 C   0  0  0  0  0  0  0  0  0  0  0  0
  -28.6178   -0.3196   -4.9406 C   0  0  0  0  0  0  0  0  0  0  0  0
  -27.6522   -0.1753   -5.9197 C   0  0  0  0  0  0  0  0  0  0  0  0
  -27.4807   -1.0330   -6.9536 N   0  0  0  0  0  0  0  0  0  0  0  0
  -28.2994   -2.1134   -7.0301 C   0  0  0  0  0  0  0  0  0  0  0  0
  -26.4419   -1.7026  -11.1999 C   0  0  0  0  0  0  0  0  0  0  0  0
  -25.1653   -1.3005  -10.7715 C   0  0  0  0  0  0  0  0  0  0  0  0
  -24.1717   -0.9875  -11.6979 C   0  0  0  0  0  0  0  0  0  0  0  0
  -24.4554   -1.0692  -13.0575 C   0  0  0  0  0  0  0  0  0  0  0  0
  -23.2510   -0.6277  -14.2030 Cl  0  0  0  0  0  0  0  0  0  0  0  0
  -25.7181   -1.4802  -13.4955 C   0  0  0  0  0  0  0  0  0  0  0  0
  -26.7177   -1.8026  -12.5663 C   0  0  0  0  0  0  0  0  0  0  0  0
  1  2  2  0  0  0
  2  3  1  0  0  0
  2 15  1  0  0  0
  3  5  1  0  0  0
  3  4  1  0  0  0
  5  6  1  0  0  0
  5 14  2  0  0  0
  6  7  2  0  0  0
  7  8  1  0  0  0
  8  9  2  0  0  0
  9 10  1  0  0  0
  9 14  1  0  0  0
 10 11  2  0  0  0
 11 12  1  0  0  0
 12 13  2  0  0  0
 13 14  1  0  0  0
 15 16  1  0  0  0
 15 21  2  0  0  0
 16 17  2  0  0  0
 17 18  1  0  0  0
 18 19  1  0  0  0
 18 20  2  0  0  0
 20 21  1  0  0  0
M  END
> <minimizedAffinity>
-9.12505

$$$$
