CHEMBL3676375


 39 41  0  0  0  0  0  0  0  0999 V2000
  -15.4337    0.3693  -13.7145 C   0  0  0  0  0  0  0  0  0  0  0  0
  -14.1905    0.0865  -14.2793 C   0  0  0  0  0  0  0  0  0  0  0  0
  -13.9716    0.2932  -15.6550 C   0  0  0  0  0  0  0  0  0  0  0  0
  -12.8350   -0.1479  -16.3458 C   0  0  0  0  0  0  0  0  0  0  0  0
  -12.6925    0.0581  -17.6693 N   0  0  0  0  0  0  0  0  0  0  0  0
  -13.6899    0.6697  -18.3026 C   0  0  0  0  0  0  0  0  0  0  0  0
  -14.8345    1.0794  -17.7513 N   0  0  0  0  0  0  0  0  0  0  0  0
  -14.9796    0.8801  -16.4365 C   0  0  0  0  0  0  0  0  0  0  0  0
  -16.1882    1.2214  -15.8333 C   0  0  0  0  0  0  0  0  0  0  0  0
  -16.4363    0.9857  -14.4770 C   0  0  0  0  0  0  0  0  0  0  0  0
  -15.7623   -1.5635  -12.2582 C   0  0  0  0  0  0  0  0  0  0  0  0
  -15.7240   -2.0142  -11.1201 O   0  0  0  0  0  0  0  0  0  0  0  0
  -15.7194   -0.2009  -12.4665 N   0  0  0  0  0  0  0  0  0  0  0  0
  -15.3298    0.2558  -11.6486 H   0  0  0  0  0  0  0  0  0  0  0  0
  -16.2567   -3.6904  -13.3413 C   0  0  0  0  0  0  0  0  0  0  0  0
  -15.7862   -2.4423  -13.4594 C   0  0  0  0  0  0  0  0  0  0  0  0
  -11.8507   -0.9304  -15.6776 N   0  0  0  0  0  0  0  0  0  0  0  0
  -10.9449   -0.8473  -16.1346 H   0  0  0  0  0  0  0  0  0  0  0  0
  -12.0967   -2.2448  -15.2101 C   0  0  0  0  0  0  0  0  0  0  0  0
  -11.8257   -2.5880  -13.8791 C   0  0  0  0  0  0  0  0  0  0  0  0
  -12.2316   -3.8158  -13.3601 C   0  0  0  0  0  0  0  0  0  0  0  0
  -12.8912   -4.7348  -14.1799 C   0  0  0  0  0  0  0  0  0  0  0  0
  -13.5295   -6.3226  -13.3575 Br  0  0  0  0  0  0  0  0  0  0  0  0
  -13.0828   -4.4452  -15.5378 C   0  0  0  0  0  0  0  0  0  0  0  0
  -13.8488   -5.5650  -16.6145 Cl  0  0  0  0  0  0  0  0  0  0  0  0
  -12.6774   -3.2096  -16.0398 C   0  0  0  0  0  0  0  0  0  0  0  0
  -12.8791   -2.9008  -17.3343 F   0  0  0  0  0  0  0  0  0  0  0  0
  -17.7019    1.2904  -14.0363 O   0  0  0  0  0  0  0  0  0  0  0  0
  -18.7637    0.8989  -14.9211 C   0  0  0  0  0  0  0  0  0  0  0  0
  -20.1154    1.5247  -14.5127 C   0  0  0  0  0  0  0  0  0  0  0  0
  -20.4838    2.6921  -15.4266 C   0  0  0  0  0  0  0  0  0  0  0  0
  -21.1844    0.5206  -14.5520 N   0  0  0  0  0  0  0  0  0  0  0  0
  -22.4353    0.7790  -14.0274 C   0  0  0  0  0  0  0  0  0  0  0  0
  -22.7844    1.8845  -13.6289 O   0  0  0  0  0  0  0  0  0  0  0  0
  -20.9249   -0.4606  -14.5895 H   0  0  0  0  0  0  0  0  0  0  0  0
  -23.3538   -0.4506  -13.9609 C   0  0  0  0  0  0  0  0  0  0  0  0
  -23.9050   -0.6343  -12.5947 N   0  0  0  0  0  0  0  0  0  0  0  0
  -25.3150   -1.0440  -12.6544 C   0  0  0  0  0  0  0  0  0  0  0  0
  -23.1408   -1.6769  -11.8983 C   0  0  0  0  0  0  0  0  0  0  0  0
 15 16  2  0  0  0
 16 11  1  0  0  0
 11 12  2  0  0  0
 11 13  1  0  0  0
 13  1  1  0  0  0
 13 14  1  0  0  0
  1  2  1  0  0  0
  1 10  2  0  0  0
  2  3  2  0  0  0
  3  4  1  0  0  0
  3  8  1  0  0  0
  4 17  1  0  0  0
  4  5  2  0  0  0
 17 19  1  0  0  0
 17 18  1  0  0  0
 19 20  1  0  0  0
 19 26  2  0  0  0
 20 21  2  0  0  0
 21 22  1  0  0  0
 22 23  1  0  0  0
 22 24  2  0  0  0
 24 25  1  0  0  0
 24 26  1  0  0  0
 26 27  1  0  0  0
  5  6  1  0  0  0
  6  7  2  0  0  0
  7  8  1  0  0  0
  8  9  2  0  0  0
  9 10  1  0  0  0
 10 28  1  0  0  0
 28 29  1  0  0  0
 29 30  1  0  0  0
 30 31  1  0  0  0
 30 32  1  0  0  0
 32 33  1  0  0  0
 32 35  1  0  0  0
 33 34  2  0  0  0
 33 36  1  0  0  0
 36 37  1  0  0  0
 37 38  1  0  0  0
 37 39  1  0  0  0
M  END
> <minimizedAffinity>
-7.16248

$$$$
