CHEMBL1681955


 33 35  0  0  0  0  0  0  0  0999 V2000
  -29.8561   -9.3995   -7.0063 C   0  0  0  0  0  0  0  0  0  0  0  0
  -30.7627   -8.5640   -7.6553 C   0  0  0  0  0  0  0  0  0  0  0  0
  -30.9986   -7.2731   -7.1867 C   0  0  0  0  0  0  0  0  0  0  0  0
  -30.4122   -6.8023   -6.0086 C   0  0  0  0  0  0  0  0  0  0  0  0
  -29.5608   -7.6836   -5.3131 C   0  0  0  0  0  0  0  0  0  0  0  0
  -28.8264   -7.2038   -3.8183 Cl  0  0  0  0  0  0  0  0  0  0  0  0
  -29.2843   -8.9768   -5.8037 C   0  0  0  0  0  0  0  0  0  0  0  0
  -30.6336   -5.4696   -5.5536 N   0  0  0  0  0  0  0  0  0  0  0  0
  -29.8727   -4.3763   -5.9247 C   0  0  0  0  0  0  0  0  0  0  0  0
  -29.0248   -4.3753   -6.8065 O   0  0  0  0  0  0  0  0  0  0  0  0
  -30.1042   -3.2499   -5.1645 N   0  0  0  0  0  0  0  0  0  0  0  0
  -31.4703   -5.3135   -5.0080 H   0  0  0  0  0  0  0  0  0  0  0  0
  -31.0158   -3.1351   -4.7408 H   0  0  0  0  0  0  0  0  0  0  0  0
  -29.3186   -2.0494   -5.4552 C   0  0  0  0  0  0  0  0  0  0  0  0
  -28.0612   -1.9469   -4.5883 C   0  0  0  0  0  0  0  0  0  0  0  0
  -27.2427   -0.7105   -4.9697 C   0  0  0  0  0  0  0  0  0  0  0  0
  -28.0729    0.5680   -4.8802 C   0  0  0  0  0  0  0  0  0  0  0  0
  -29.3565    0.4691   -5.6994 C   0  0  0  0  0  0  0  0  0  0  0  0
  -30.1679   -0.7731   -5.3350 C   0  0  0  0  0  0  0  0  0  0  0  0
  -29.5174  -10.6394   -7.5256 O   0  0  0  0  0  0  0  0  0  0  0  0
  -27.2117  -11.2183   -7.9317 C   0  0  0  0  0  0  0  0  0  0  0  0
  -26.1760  -11.2361   -8.8633 C   0  0  0  0  0  0  0  0  0  0  0  0
  -24.9504  -11.8551   -8.6205 N   0  0  0  0  0  0  0  0  0  0  0  0
  -26.3110  -10.7661  -10.1144 N   0  0  0  0  0  0  0  0  0  0  0  0
  -27.4952  -10.2370  -10.4277 C   0  0  0  0  0  0  0  0  0  0  0  0
  -28.5441  -10.1406   -9.6090 N   0  0  0  0  0  0  0  0  0  0  0  0
  -28.4033  -10.6749   -8.3727 C   0  0  0  0  0  0  0  0  0  0  0  0
  -24.6063  -11.6497   -7.6817 H   0  0  0  0  0  0  0  0  0  0  0  0
  -24.3006  -11.6341   -9.3667 H   0  0  0  0  0  0  0  0  0  0  0  0
  -26.1727  -11.1262   -5.7688 N   0  0  0  0  0  0  0  0  0  0  0  0
  -27.0182  -11.7131   -6.5592 C   0  0  0  0  0  0  0  0  0  0  0  0
  -26.6645  -10.8387   -3.5599 C   0  0  0  0  0  0  0  0  0  0  0  0
  -26.1458  -11.7569   -4.5210 O   0  0  0  0  0  0  0  0  0  0  0  0
 32 33  1  0  0  0
 33 30  1  0  0  0
 30 31  2  0  0  0
 31 21  1  0  0  0
 21 22  1  0  0  0
 21 27  2  0  0  0
 22 23  1  0  0  0
 22 24  2  0  0  0
 23 28  1  0  0  0
 23 29  1  0  0  0
 24 25  1  0  0  0
 25 26  2  0  0  0
 26 27  1  0  0  0
 27 20  1  0  0  0
 20  1  1  0  0  0
  1  2  1  0  0  0
  1  7  2  0  0  0
  2  3  2  0  0  0
  3  4  1  0  0  0
  4  8  1  0  0  0
  4  5  2  0  0  0
  8  9  1  0  0  0
  8 12  1  0  0  0
  9 10  2  0  0  0
  9 11  1  0  0  0
 11 14  1  0  0  0
 11 13  1  0  0  0
 14 15  1  0  0  0
 14 19  1  0  0  0
 15 16  1  0  0  0
 16 17  1  0  0  0
 17 18  1  0  0  0
 18 19  1  0  0  0
  5  6  1  0  0  0
  5  7  1  0  0  0
M  END
> <minimizedAffinity>
-7.55117

$$$$
