CHEMBL4089043


 37 40  0  0  0  0  0  0  0  0999 V2000
  -21.5192    0.9883  -14.1382 C   0  0  0  0  0  0  0  0  0  0  0  0
  -21.4848    2.3928  -14.0807 C   0  0  0  0  0  0  0  0  0  0  0  0
  -20.4669    3.1215  -14.7279 C   0  0  0  0  0  0  0  0  0  0  0  0
  -19.4501    2.4690  -15.4362 C   0  0  0  0  0  0  0  0  0  0  0  0
  -19.5115    1.0883  -15.5308 C   0  0  0  0  0  0  0  0  0  0  0  0
  -20.4992    0.3668  -14.8666 C   0  0  0  0  0  0  0  0  0  0  0  0
  -27.9844   -2.2749  -14.1199 N   0  0  0  0  0  0  0  0  0  0  0  0
  -26.8423   -1.9061  -13.4482 C   0  0  0  0  0  0  0  0  0  0  0  0
  -26.7468   -2.2840  -12.1720 N   0  0  0  0  0  0  0  0  0  0  0  0
  -25.6036   -1.9659  -11.5485 C   0  0  0  0  0  0  0  0  0  0  0  0
  -24.5662   -1.2831  -12.1569 C   0  0  0  0  0  0  0  0  0  0  0  0
  -23.3593   -1.0172  -11.5135 C   0  0  0  0  0  0  0  0  0  0  0  0
  -22.3632   -0.3290  -12.1972 C   0  0  0  0  0  0  0  0  0  0  0  0
  -22.5663    0.1558  -13.5016 C   0  0  0  0  0  0  0  0  0  0  0  0
  -23.7923   -0.1496  -14.1207 C   0  0  0  0  0  0  0  0  0  0  0  0
  -24.7941   -0.8800  -13.4791 C   0  0  0  0  0  0  0  0  0  0  0  0
  -25.9331   -1.1840  -14.1147 N   0  0  0  0  0  0  0  0  0  0  0  0
  -28.7280   -2.4508  -13.4600 H   0  0  0  0  0  0  0  0  0  0  0  0
  -28.1686   -1.6275  -14.8738 H   0  0  0  0  0  0  0  0  0  0  0  0
  -18.4158    3.2520  -15.9992 N   0  0  0  0  0  0  0  0  0  0  0  0
  -18.7284    4.0878  -16.4767 H   0  0  0  0  0  0  0  0  0  0  0  0
  -17.0273    3.0916  -15.9738 C   0  0  0  0  0  0  0  0  0  0  0  0
  -15.8308    4.2724  -16.0369 S   0  0  0  0  0  0  0  0  0  0  0  0
  -16.7282    1.7210  -16.0264 N   0  0  0  0  0  0  0  0  0  0  0  0
  -17.4495    1.1910  -16.4958 H   0  0  0  0  0  0  0  0  0  0  0  0
  -15.4150    1.1921  -16.0814 C   0  0  0  0  0  0  0  0  0  0  0  0
  -14.8828    0.8993  -17.3517 C   0  0  0  0  0  0  0  0  0  0  0  0
  -13.6971    0.1847  -17.4871 C   0  0  0  0  0  0  0  0  0  0  0  0
  -13.0079   -0.2001  -16.3466 C   0  0  0  0  0  0  0  0  0  0  0  0
  -11.4709   -1.2879  -16.5126 Br  0  0  0  0  0  0  0  0  0  0  0  0
  -13.4674    0.1753  -15.0804 C   0  0  0  0  0  0  0  0  0  0  0  0
  -14.6615    0.9007  -14.9334 C   0  0  0  0  0  0  0  0  0  0  0  0
  -15.0785    1.0158  -13.6392 O   0  0  0  0  0  0  0  0  0  0  0  0
  -16.1707    0.2440  -13.1707 C   0  0  0  0  0  0  0  0  0  0  0  0
  -16.5000   -0.7867  -13.9771 F   0  0  0  0  0  0  0  0  0  0  0  0
  -15.8313   -0.2766  -11.9691 F   0  0  0  0  0  0  0  0  0  0  0  0
  -17.2562    1.0265  -13.0038 F   0  0  0  0  0  0  0  0  0  0  0  0
  7  8  1  0  0  0
  7 18  1  0  0  0
  7 19  1  0  0  0
  8  9  1  0  0  0
  8 17  2  0  0  0
  9 10  2  0  0  0
 10 11  1  0  0  0
 11 12  1  0  0  0
 11 16  2  0  0  0
 12 13  2  0  0  0
 13 14  1  0  0  0
 14  1  1  0  0  0
 14 15  2  0  0  0
  1  2  1  0  0  0
  1  6  2  0  0  0
  2  3  2  0  0  0
  3  4  1  0  0  0
  4 20  1  0  0  0
  4  5  2  0  0  0
 20 22  1  0  0  0
 20 21  1  0  0  0
 22 23  2  0  0  0
 22 24  1  0  0  0
 24 26  1  0  0  0
 24 25  1  0  0  0
 26 27  1  0  0  0
 26 32  2  0  0  0
 27 28  2  0  0  0
 28 29  1  0  0  0
 29 30  1  0  0  0
 29 31  2  0  0  0
 31 32  1  0  0  0
 32 33  1  0  0  0
 33 34  1  0  0  0
 34 35  1  0  0  0
 34 36  1  0  0  0
 34 37  1  0  0  0
  5  6  1  0  0  0
 15 16  1  0  0  0
 16 17  1  0  0  0
M  END
> <minimizedAffinity>
-9.73234

$$$$
