CHEMBL462169


 33 37  0  0  0  0  0  0  0  0999 V2000
  -27.4284   -1.9995  -10.8557 C   0  0  0  0  0  0  0  0  0  0  0  0
  -26.2252   -1.5554  -10.3094 C   0  0  0  0  0  0  0  0  0  0  0  0
  -25.1934   -1.1020  -11.1384 C   0  0  0  0  0  0  0  0  0  0  0  0
  -25.3262   -1.1039  -12.5452 C   0  0  0  0  0  0  0  0  0  0  0  0
  -24.3097   -0.6627  -13.4390 C   0  0  0  0  0  0  0  0  0  0  0  0
  -24.5213   -0.7670  -14.8264 C   0  0  0  0  0  0  0  0  0  0  0  0
  -25.7249   -1.2376  -15.3389 C   0  0  0  0  0  0  0  0  0  0  0  0
  -26.7360   -1.6251  -14.4730 C   0  0  0  0  0  0  0  0  0  0  0  0
  -26.5581   -1.5582  -13.0855 C   0  0  0  0  0  0  0  0  0  0  0  0
  -27.6039   -1.9562  -12.2377 C   0  0  0  0  0  0  0  0  0  0  0  0
  -23.0548   -0.1843  -12.9485 N   0  0  0  0  0  0  0  0  0  0  0  0
  -22.5093   -0.9723  -12.6051 H   0  0  0  0  0  0  0  0  0  0  0  0
  -22.2460    0.7768  -13.6056 C   0  0  0  0  0  0  0  0  0  0  0  0
  -22.6007    2.1354  -13.5962 C   0  0  0  0  0  0  0  0  0  0  0  0
  -21.8683    3.0763  -14.3205 C   0  0  0  0  0  0  0  0  0  0  0  0
  -20.7465    2.6751  -15.0391 C   0  0  0  0  0  0  0  0  0  0  0  0
  -20.3456    1.3395  -15.0094 C   0  0  0  0  0  0  0  0  0  0  0  0
  -21.0860    0.3958  -14.2888 C   0  0  0  0  0  0  0  0  0  0  0  0
  -28.3521   -2.4652   -9.9458 O   0  0  0  0  0  0  0  0  0  0  0  0
  -28.4299   -4.9371   -5.3908 C   0  0  0  0  0  0  0  0  0  0  0  0
  -28.1227   -3.5854   -5.2044 C   0  0  0  0  0  0  0  0  0  0  0  0
  -28.0527   -2.6876   -6.2589 C   0  0  0  0  0  0  0  0  0  0  0  0
  -27.7219   -1.4173   -5.9768 N   0  0  0  0  0  0  0  0  0  0  0  0
  -27.6142   -0.5424   -6.9963 C   0  0  0  0  0  0  0  0  0  0  0  0
  -27.8414   -0.8753   -8.3127 C   0  0  0  0  0  0  0  0  0  0  0  0
  -28.2112   -2.1898   -8.6002 C   0  0  0  0  0  0  0  0  0  0  0  0
  -28.3034   -3.1516   -7.5634 C   0  0  0  0  0  0  0  0  0  0  0  0
  -28.6295   -4.5174   -7.7442 C   0  0  0  0  0  0  0  0  0  0  0  0
  -28.7693   -5.3894   -6.6645 C   0  0  0  0  0  0  0  0  0  0  0  0
  -29.6520   -5.9884   -3.6942 C   0  0  0  0  0  0  0  0  0  0  0  0
  -28.3941   -5.8320   -4.3534 O   0  0  0  0  0  0  0  0  0  0  0  0
  -29.1823   -6.6491   -7.0037 O   0  0  0  0  0  0  0  0  0  0  0  0
  -30.5721   -6.7839   -7.2928 C   0  0  0  0  0  0  0  0  0  0  0  0
 30 31  1  0  0  0
 31 20  1  0  0  0
 20 21  1  0  0  0
 20 29  2  0  0  0
 21 22  2  0  0  0
 22 23  1  0  0  0
 22 27  1  0  0  0
 23 24  2  0  0  0
 24 25  1  0  0  0
 25 26  2  0  0  0
 26 19  1  0  0  0
 26 27  1  0  0  0
 19  1  1  0  0  0
  1  2  1  0  0  0
  1 10  2  0  0  0
  2  3  2  0  0  0
  3  4  1  0  0  0
  4  5  1  0  0  0
  4  9  2  0  0  0
  5 11  1  0  0  0
  5  6  2  0  0  0
 11 13  1  0  0  0
 11 12  1  0  0  0
 13 14  1  0  0  0
 13 18  2  0  0  0
 14 15  2  0  0  0
 15 16  1  0  0  0
 16 17  2  0  0  0
 17 18  1  0  0  0
  6  7  1  0  0  0
  7  8  2  0  0  0
  8  9  1  0  0  0
  9 10  1  0  0  0
 27 28  2  0  0  0
 28 29  1  0  0  0
 29 32  1  0  0  0
 32 33  1  0  0  0
M  END
> <minimizedAffinity>
-10.19904

$$$$
