CHEMBL4561280


 26 29  0  0  0  0  0  0  0  0999 V2000
  -27.6482   -2.5744   -8.7901 C   0  0  0  0  0  0  0  0  0  0  0  0
  -27.6816   -1.3835   -7.8715 C   0  0  0  0  0  0  0  0  0  0  0  0
  -28.4153   -1.5059   -6.7603 C   0  0  0  0  0  0  0  0  0  0  0  0
  -29.0555   -2.7005   -6.4720 N   0  0  0  0  0  0  0  0  0  0  0  0
  -29.8347   -2.9627   -5.3980 N   0  0  0  0  0  0  0  0  0  0  0  0
  -30.1694   -4.2418   -5.5486 C   0  0  0  0  0  0  0  0  0  0  0  0
  -29.6338   -4.8340   -6.7155 C   0  0  0  0  0  0  0  0  0  0  0  0
  -28.9329   -3.8033   -7.3242 C   0  0  0  0  0  0  0  0  0  0  0  0
  -28.2307   -3.7134   -8.4993 N   0  0  0  0  0  0  0  0  0  0  0  0
  -29.7657   -6.2128   -7.1735 C   0  0  0  0  0  0  0  0  0  0  0  0
  -30.9537   -6.9521   -6.9729 C   0  0  0  0  0  0  0  0  0  0  0  0
  -31.1086   -8.2393   -7.5080 C   0  0  0  0  0  0  0  0  0  0  0  0
  -30.0624   -8.7659   -8.2317 C   0  0  0  0  0  0  0  0  0  0  0  0
  -28.8955   -8.0659   -8.4180 C   0  0  0  0  0  0  0  0  0  0  0  0
  -28.7162   -6.7987   -7.9040 C   0  0  0  0  0  0  0  0  0  0  0  0
  -27.9886   -8.7542   -9.1628 O   0  0  0  0  0  0  0  0  0  0  0  0
  -28.7070   -9.9832   -9.3939 C   0  0  0  0  0  0  0  0  0  0  0  0
  -30.0393   -9.9821   -8.8389 O   0  0  0  0  0  0  0  0  0  0  0  0
  -26.9987   -2.4216   -9.9962 N   0  0  0  0  0  0  0  0  0  0  0  0
  -25.9868   -2.5182   -9.9796 H   0  0  0  0  0  0  0  0  0  0  0  0
  -27.4292   -1.4259  -10.9684 C   0  0  0  0  0  0  0  0  0  0  0  0
  -27.1061   -1.8607  -12.4016 C   0  0  0  0  0  0  0  0  0  0  0  0
  -25.7508   -1.3556  -12.9190 C   0  0  0  0  0  0  0  0  0  0  0  0
  -23.6701   -2.0521  -11.8764 C   0  0  0  0  0  0  0  0  0  0  0  0
  -24.7666   -1.0785  -11.8567 N   0  0  0  0  0  0  0  0  0  0  0  0
  -24.2202    0.2735  -12.0178 C   0  0  0  0  0  0  0  0  0  0  0  0
 24 25  1  0  0  0
 25 26  1  0  0  0
 25 23  1  0  0  0
 23 22  1  0  0  0
 22 21  1  0  0  0
 21 19  1  0  0  0
 19  1  1  0  0  0
 19 20  1  0  0  0
  1  2  1  0  0  0
  1  9  2  0  0  0
  2  3  2  0  0  0
  3  4  1  0  0  0
  4  5  1  0  0  0
  4  8  1  0  0  0
  5  6  2  0  0  0
  6  7  1  0  0  0
  7 10  1  0  0  0
  7  8  2  0  0  0
 10 11  1  0  0  0
 10 15  2  0  0  0
 11 12  2  0  0  0
 12 13  1  0  0  0
 13 14  2  0  0  0
 13 18  1  0  0  0
 14 15  1  0  0  0
 14 16  1  0  0  0
 16 17  1  0  0  0
 17 18  1  0  0  0
  8  9  1  0  0  0
M  END
> <minimizedAffinity>
-8.20520

$$$$
