CHEMBL1993904


 34 38  0  0  0  0  0  0  0  0999 V2000
  -28.3084  -10.1324   -9.6984 C   0  0  0  0  0  0  0  0  0  0  0  0
  -28.5900   -9.2924   -8.6417 C   0  0  0  0  0  0  0  0  0  0  0  0
  -29.9061   -9.4700   -8.0673 C   0  0  0  0  0  0  0  0  0  0  0  0
  -30.6122   -8.7591   -7.0480 C   0  0  0  0  0  0  0  0  0  0  0  0
  -31.8650   -9.2838   -6.7214 C   0  0  0  0  0  0  0  0  0  0  0  0
  -32.4430  -10.3696   -7.2775 N   0  0  0  0  0  0  0  0  0  0  0  0
  -31.8057  -11.0160   -8.2671 C   0  0  0  0  0  0  0  0  0  0  0  0
  -32.4487  -12.1085   -8.8291 N   0  0  0  0  0  0  0  0  0  0  0  0
  -30.5343  -10.5690   -8.6688 C   0  0  0  0  0  0  0  0  0  0  0  0
  -29.5655  -11.2521   -9.9271 S   0  0  0  0  0  0  0  0  0  0  0  0
  -33.1788  -12.4496   -8.2154 H   0  0  0  0  0  0  0  0  0  0  0  0
  -31.8337  -12.7981   -9.2386 H   0  0  0  0  0  0  0  0  0  0  0  0
  -30.0738   -7.5451   -6.4006 C   0  0  0  0  0  0  0  0  0  0  0  0
  -30.1363   -6.2949   -7.0256 C   0  0  0  0  0  0  0  0  0  0  0  0
  -29.5723   -5.1520   -6.4507 C   0  0  0  0  0  0  0  0  0  0  0  0
  -28.9543   -5.1908   -5.1999 C   0  0  0  0  0  0  0  0  0  0  0  0
  -28.9681   -6.4141   -4.5208 C   0  0  0  0  0  0  0  0  0  0  0  0
  -29.5005   -7.5724   -5.1154 C   0  0  0  0  0  0  0  0  0  0  0  0
  -28.4068   -4.0537   -4.5755 N   0  0  0  0  0  0  0  0  0  0  0  0
  -27.5158   -4.2155   -4.1275 H   0  0  0  0  0  0  0  0  0  0  0  0
  -28.7010   -2.7738   -4.8760 C   0  0  0  0  0  0  0  0  0  0  0  0
  -29.7087   -2.0175   -4.4872 N   0  0  0  0  0  0  0  0  0  0  0  0
  -29.5321   -0.8471   -5.1672 C   0  0  0  0  0  0  0  0  0  0  0  0
  -30.3024    0.3218   -5.1885 C   0  0  0  0  0  0  0  0  0  0  0  0
  -29.8784    1.3706   -6.0158 C   0  0  0  0  0  0  0  0  0  0  0  0
  -28.7210    1.2525   -6.7967 C   0  0  0  0  0  0  0  0  0  0  0  0
  -27.9403    0.0880   -6.7794 C   0  0  0  0  0  0  0  0  0  0  0  0
  -28.3932   -0.9260   -5.9458 C   0  0  0  0  0  0  0  0  0  0  0  0
  -27.8357   -2.1571   -5.7436 O   0  0  0  0  0  0  0  0  0  0  0  0
  -27.2022   -9.4234  -11.7126 N   0  0  0  0  0  0  0  0  0  0  0  0
  -27.1193  -10.1078  -10.5323 C   0  0  0  0  0  0  0  0  0  0  0  0
  -26.0575  -10.6447  -10.2279 O   0  0  0  0  0  0  0  0  0  0  0  0
  -26.3672   -9.3459  -12.2745 H   0  0  0  0  0  0  0  0  0  0  0  0
  -28.0331   -8.9104  -11.9744 H   0  0  0  0  0  0  0  0  0  0  0  0
 30 31  1  0  0  0
 30 33  1  0  0  0
 30 34  1  0  0  0
 31 32  2  0  0  0
 31  1  1  0  0  0
  1  2  2  0  0  0
  1 10  1  0  0  0
  2  3  1  0  0  0
  3  4  1  0  0  0
  3  9  2  0  0  0
  4 13  1  0  0  0
  4  5  2  0  0  0
 13 14  1  0  0  0
 13 18  2  0  0  0
 14 15  2  0  0  0
 15 16  1  0  0  0
 16 19  1  0  0  0
 16 17  2  0  0  0
 19 21  1  0  0  0
 19 20  1  0  0  0
 21 22  2  0  0  0
 21 29  1  0  0  0
 22 23  1  0  0  0
 23 24  1  0  0  0
 23 28  2  0  0  0
 24 25  2  0  0  0
 25 26  1  0  0  0
 26 27  2  0  0  0
 27 28  1  0  0  0
 28 29  1  0  0  0
 17 18  1  0  0  0
  5  6  1  0  0  0
  6  7  2  0  0  0
  7  8  1  0  0  0
  7  9  1  0  0  0
  8 11  1  0  0  0
  8 12  1  0  0  0
  9 10  1  0  0  0
M  END
> <minimizedAffinity>
-9.15474

$$$$
