CHEMBL2325106


 28 31  0  0  0  0  0  0  0  0999 V2000
  -27.3575   -1.6864   -9.3511 C   0  0  0  0  0  0  0  0  0  0  0  0
  -27.8168   -0.6658   -8.6931 N   0  0  0  0  0  0  0  0  0  0  0  0
  -28.0938   -1.0966   -7.4109 N   0  0  0  0  0  0  0  0  0  0  0  0
  -27.8483   -2.5296   -7.2354 C   0  0  0  0  0  0  0  0  0  0  0  0
  -27.3098   -2.9840   -8.5836 C   0  0  0  0  0  0  0  0  0  0  0  0
  -29.0541   -3.3196   -6.7491 C   0  0  0  0  0  0  0  0  0  0  0  0
  -29.7183   -4.1027   -7.7344 C   0  0  0  0  0  0  0  0  0  0  0  0
  -30.7112   -5.0012   -7.3983 C   0  0  0  0  0  0  0  0  0  0  0  0
  -30.9630   -5.2661   -6.0660 C   0  0  0  0  0  0  0  0  0  0  0  0
  -30.3594   -4.5031   -5.0992 C   0  0  0  0  0  0  0  0  0  0  0  0
  -30.6266   -4.8316   -3.7726 C   0  0  0  0  0  0  0  0  0  0  0  0
  -30.8910   -3.7817   -2.9312 C   0  0  0  0  0  0  0  0  0  0  0  0
  -30.2423   -2.5664   -3.1884 C   0  0  0  0  0  0  0  0  0  0  0  0
  -29.4576   -2.4310   -4.3526 C   0  0  0  0  0  0  0  0  0  0  0  0
  -29.5535   -3.3825   -5.4034 C   0  0  0  0  0  0  0  0  0  0  0  0
  -26.1111   -1.5295  -13.4662 C   0  0  0  0  0  0  0  0  0  0  0  0
  -27.4149   -1.8868  -13.1295 C   0  0  0  0  0  0  0  0  0  0  0  0
  -27.8132   -1.9219  -11.7850 C   0  0  0  0  0  0  0  0  0  0  0  0
  -26.9107   -1.5965  -10.7641 C   0  0  0  0  0  0  0  0  0  0  0  0
  -25.6116   -1.2100  -11.1032 C   0  0  0  0  0  0  0  0  0  0  0  0
  -25.2193   -1.1812  -12.4481 C   0  0  0  0  0  0  0  0  0  0  0  0
  -24.3929   -0.7322  -14.9137 C   0  0  0  0  0  0  0  0  0  0  0  0
  -25.5857   -1.4852  -14.7282 O   0  0  0  0  0  0  0  0  0  0  0  0
  -28.4055   -0.1689   -6.4296 C   0  0  0  0  0  0  0  0  0  0  0  0
  -27.4167   -0.0276   -5.4977 N   0  0  0  0  0  0  0  0  0  0  0  0
  -29.7871    0.7539   -6.3032 S   0  0  0  0  0  0  0  0  0  0  0  0
  -26.5402   -0.4752   -5.7362 H   0  0  0  0  0  0  0  0  0  0  0  0
  -27.4279    0.7619   -4.8689 H   0  0  0  0  0  0  0  0  0  0  0  0
 22 23  1  0  0  0
 23 16  1  0  0  0
 16 17  1  0  0  0
 16 21  2  0  0  0
 17 18  2  0  0  0
 18 19  1  0  0  0
 19  1  1  0  0  0
 19 20  2  0  0  0
  1  2  2  0  0  0
  1  5  1  0  0  0
  2  3  1  0  0  0
  3 24  1  0  0  0
  3  4  1  0  0  0
 24 25  1  0  0  0
 24 26  2  0  0  0
 25 27  1  0  0  0
 25 28  1  0  0  0
  4  6  1  0  0  0
  4  5  1  0  0  0
  6  7  1  0  0  0
  6 15  2  0  0  0
  7  8  2  0  0  0
  8  9  1  0  0  0
  9 10  2  0  0  0
 10 11  1  0  0  0
 10 15  1  0  0  0
 11 12  2  0  0  0
 12 13  1  0  0  0
 13 14  2  0  0  0
 14 15  1  0  0  0
 20 21  1  0  0  0
M  END
> <minimizedAffinity>
-7.80423

$$$$
