CHEMBL3972921


 37 40  0  0  0  0  0  0  0  0999 V2000
  -25.4034   -1.9527  -11.8789 C   0  0  0  0  0  0  0  0  0  0  0  0
  -24.0976   -1.8854  -11.3921 C   0  0  0  0  0  0  0  0  0  0  0  0
  -23.0472   -1.4738  -12.2150 C   0  0  0  0  0  0  0  0  0  0  0  0
  -23.2894   -1.0698  -13.5292 C   0  0  0  0  0  0  0  0  0  0  0  0
  -24.5824   -1.1647  -14.0432 C   0  0  0  0  0  0  0  0  0  0  0  0
  -25.6218   -1.6006  -13.2171 C   0  0  0  0  0  0  0  0  0  0  0  0
  -26.8625   -1.6852  -13.7256 F   0  0  0  0  0  0  0  0  0  0  0  0
  -26.2459   -1.0302   -9.2554 O   0  0  0  0  0  0  0  0  0  0  0  0
  -26.8419   -1.9288   -9.8383 C   0  0  0  0  0  0  0  0  0  0  0  0
  -27.8993   -2.6370   -9.2911 N   0  0  0  0  0  0  0  0  0  0  0  0
  -26.5113   -2.3806  -11.1041 N   0  0  0  0  0  0  0  0  0  0  0  0
  -28.1855   -3.4729   -9.7772 H   0  0  0  0  0  0  0  0  0  0  0  0
  -27.1247   -3.0475  -11.5524 H   0  0  0  0  0  0  0  0  0  0  0  0
  -28.4275   -2.4433   -7.9917 C   0  0  0  0  0  0  0  0  0  0  0  0
  -29.0585   -3.4533   -7.2585 C   0  0  0  0  0  0  0  0  0  0  0  0
  -29.6206   -3.1916   -6.0090 C   0  0  0  0  0  0  0  0  0  0  0  0
  -29.5404   -1.9158   -5.4635 C   0  0  0  0  0  0  0  0  0  0  0  0
  -28.8809   -0.8927   -6.1582 C   0  0  0  0  0  0  0  0  0  0  0  0
  -28.3225   -1.1689   -7.4223 C   0  0  0  0  0  0  0  0  0  0  0  0
  -28.7704    0.4890   -5.5653 C   0  0  0  0  0  0  0  0  0  0  0  0
  -27.9018    0.5672   -4.5185 F   0  0  0  0  0  0  0  0  0  0  0  0
  -28.3431    1.4086   -6.4738 F   0  0  0  0  0  0  0  0  0  0  0  0
  -29.9618    0.9526   -5.0973 F   0  0  0  0  0  0  0  0  0  0  0  0
  -22.2976   -0.6165  -14.3775 O   0  0  0  0  0  0  0  0  0  0  0  0
  -21.9744    0.7285  -14.3675 C   0  0  0  0  0  0  0  0  0  0  0  0
  -22.7331    1.6866  -13.7010 C   0  0  0  0  0  0  0  0  0  0  0  0
  -22.2858    2.9863  -13.7202 C   0  0  0  0  0  0  0  0  0  0  0  0
  -21.1856    3.3777  -14.3853 N   0  0  0  0  0  0  0  0  0  0  0  0
  -20.4797    2.4660  -15.0731 C   0  0  0  0  0  0  0  0  0  0  0  0
  -20.8492    1.1236  -15.0982 C   0  0  0  0  0  0  0  0  0  0  0  0
  -19.3360    2.8766  -15.7807 N   0  0  0  0  0  0  0  0  0  0  0  0
  -18.0454    2.5611  -15.3975 C   0  0  0  0  0  0  0  0  0  0  0  0
  -17.6956    1.8797  -14.4483 O   0  0  0  0  0  0  0  0  0  0  0  0
  -19.4777    3.4082  -16.6225 H   0  0  0  0  0  0  0  0  0  0  0  0
  -16.9448    3.1106  -16.2513 C   0  0  0  0  0  0  0  0  0  0  0  0
  -15.4776    3.1322  -15.9145 C   0  0  0  0  0  0  0  0  0  0  0  0
  -16.2690    4.4092  -15.8765 C   0  0  0  0  0  0  0  0  0  0  0  0
  8  9  2  0  0  0
  9 10  1  0  0  0
  9 11  1  0  0  0
 10 14  1  0  0  0
 10 12  1  0  0  0
 14 15  1  0  0  0
 14 19  2  0  0  0
 15 16  2  0  0  0
 16 17  1  0  0  0
 17 18  2  0  0  0
 18 20  1  0  0  0
 18 19  1  0  0  0
 20 21  1  0  0  0
 20 22  1  0  0  0
 20 23  1  0  0  0
 11  1  1  0  0  0
 11 13  1  0  0  0
  1  2  1  0  0  0
  1  6  2  0  0  0
  2  3  2  0  0  0
  3  4  1  0  0  0
  4 24  1  0  0  0
  4  5  2  0  0  0
 24 25  1  0  0  0
 25 26  1  0  0  0
 25 30  2  0  0  0
 26 27  2  0  0  0
 27 28  1  0  0  0
 28 29  2  0  0  0
 29 31  1  0  0  0
 29 30  1  0  0  0
 31 32  1  0  0  0
 31 34  1  0  0  0
 32 33  2  0  0  0
 32 35  1  0  0  0
 35 36  1  0  0  0
 35 37  1  0  0  0
 36 37  1  0  0  0
  5  6  1  0  0  0
  6  7  1  0  0  0
M  END
> <minimizedAffinity>
-11.85146

$$$$
