CHEMBL205127


 33 36  0  0  0  0  0  0  0  0999 V2000
  -28.5034   -3.8077   -7.0376 C   0  0  0  0  0  0  0  0  0  0  0  0
  -29.3543   -3.9422   -8.0353 N   0  0  0  0  0  0  0  0  0  0  0  0
  -28.9720   -3.0495   -9.0034 N   0  0  0  0  0  0  0  0  0  0  0  0
  -27.9128   -2.4207   -8.5484 C   0  0  0  0  0  0  0  0  0  0  0  0
  -27.5480   -2.8542   -7.3058 O   0  0  0  0  0  0  0  0  0  0  0  0
  -28.8835   -6.8618   -6.7811 C   0  0  0  0  0  0  0  0  0  0  0  0
  -28.7565   -5.9034   -5.7090 N   0  0  0  0  0  0  0  0  0  0  0  0
  -28.8318   -6.1995   -4.3758 C   0  0  0  0  0  0  0  0  0  0  0  0
  -28.7697   -5.1178   -3.6318 N   0  0  0  0  0  0  0  0  0  0  0  0
  -28.5864   -4.1009   -4.5181 C   0  0  0  0  0  0  0  0  0  0  0  0
  -28.5769   -4.5426   -5.8215 C   0  0  0  0  0  0  0  0  0  0  0  0
  -28.4760   -2.8198   -4.1255 N   0  0  0  0  0  0  0  0  0  0  0  0
  -27.6810   -2.5324   -3.5677 H   0  0  0  0  0  0  0  0  0  0  0  0
  -29.6087   -1.9251   -4.0911 C   0  0  0  0  0  0  0  0  0  0  0  0
  -29.2982   -0.7219   -4.9576 C   0  0  0  0  0  0  0  0  0  0  0  0
  -30.3307    0.1054   -5.4213 C   0  0  0  0  0  0  0  0  0  0  0  0
  -30.0107    1.2063   -6.2004 C   0  0  0  0  0  0  0  0  0  0  0  0
  -28.7489    1.5372   -6.5452 N   0  0  0  0  0  0  0  0  0  0  0  0
  -27.7662    0.7344   -6.0851 C   0  0  0  0  0  0  0  0  0  0  0  0
  -27.9856   -0.3914   -5.3018 C   0  0  0  0  0  0  0  0  0  0  0  0
  -27.1264   -1.4739   -9.0977 N   0  0  0  0  0  0  0  0  0  0  0  0
  -26.7186   -0.7816   -8.4844 H   0  0  0  0  0  0  0  0  0  0  0  0
  -26.7250   -1.4409  -10.4431 C   0  0  0  0  0  0  0  0  0  0  0  0
  -27.6378   -1.3811  -11.4976 C   0  0  0  0  0  0  0  0  0  0  0  0
  -27.2173   -1.4647  -12.8243 C   0  0  0  0  0  0  0  0  0  0  0  0
  -25.8650   -1.6245  -13.1323 C   0  0  0  0  0  0  0  0  0  0  0  0
  -25.4720   -1.7398  -14.8068 Cl  0  0  0  0  0  0  0  0  0  0  0  0
  -24.9185   -1.6917  -12.1067 C   0  0  0  0  0  0  0  0  0  0  0  0
  -25.3678   -1.5903  -10.7658 C   0  0  0  0  0  0  0  0  0  0  0  0
  -23.4395   -1.8819  -12.3250 C   0  0  0  0  0  0  0  0  0  0  0  0
  -22.8180   -0.9749  -13.1219 F   0  0  0  0  0  0  0  0  0  0  0  0
  -22.7527   -1.8646  -11.1470 F   0  0  0  0  0  0  0  0  0  0  0  0
  -23.1672   -3.0978  -12.8817 F   0  0  0  0  0  0  0  0  0  0  0  0
  6  7  1  0  0  0
  7  8  1  0  0  0
  7 11  1  0  0  0
  8  9  2  0  0  0
  9 10  1  0  0  0
 10 12  1  0  0  0
 10 11  2  0  0  0
 12 14  1  0  0  0
 12 13  1  0  0  0
 14 15  1  0  0  0
 15 16  1  0  0  0
 15 20  2  0  0  0
 16 17  2  0  0  0
 17 18  1  0  0  0
 18 19  2  0  0  0
 19 20  1  0  0  0
 11  1  1  0  0  0
  1  2  2  0  0  0
  1  5  1  0  0  0
  2  3  1  0  0  0
  3  4  2  0  0  0
  4 21  1  0  0  0
  4  5  1  0  0  0
 21 23  1  0  0  0
 21 22  1  0  0  0
 23 24  1  0  0  0
 23 29  2  0  0  0
 24 25  2  0  0  0
 25 26  1  0  0  0
 26 27  1  0  0  0
 26 28  2  0  0  0
 28 30  1  0  0  0
 28 29  1  0  0  0
 30 31  1  0  0  0
 30 32  1  0  0  0
 30 33  1  0  0  0
M  END
> <minimizedAffinity>
-9.74373

$$$$
