CHEMBL3093588


 34 38  0  0  0  0  0  0  0  0999 V2000
  -22.9912   11.7089  -18.1689 C   0  0  0  0  0  0  0  0  0  0  0  0
  -21.7783   11.1925  -17.7056 C   0  0  0  0  0  0  0  0  0  0  0  0
  -20.6229   11.2512  -18.4777 C   0  0  0  0  0  0  0  0  0  0  0  0
  -20.6829   11.7659  -19.7649 C   0  0  0  0  0  0  0  0  0  0  0  0
  -21.8913   12.2390  -20.2762 C   0  0  0  0  0  0  0  0  0  0  0  0
  -23.0511   12.1971  -19.4816 C   0  0  0  0  0  0  0  0  0  0  0  0
  -24.8121   10.6590  -16.8405 C   0  0  0  0  0  0  0  0  0  0  0  0
  -24.4075    9.5158  -17.0176 O   0  0  0  0  0  0  0  0  0  0  0  0
  -24.1474   11.7754  -17.3445 N   0  0  0  0  0  0  0  0  0  0  0  0
  -24.4073   12.6810  -16.9856 H   0  0  0  0  0  0  0  0  0  0  0  0
  -29.4750   10.9510  -14.8039 C   0  0  0  0  0  0  0  0  0  0  0  0
  -28.0322   11.0520  -15.1248 C   0  0  0  0  0  0  0  0  0  0  0  0
  -27.3189   10.5085  -16.2168 C   0  0  0  0  0  0  0  0  0  0  0  0
  -26.0008   10.9058  -16.0464 C   0  0  0  0  0  0  0  0  0  0  0  0
  -26.0091   11.6373  -14.8732 N   0  0  0  0  0  0  0  0  0  0  0  0
  -24.9303   12.2937  -14.1672 C   0  0  0  0  0  0  0  0  0  0  0  0
  -27.2307   11.7379  -14.3130 N   0  0  0  0  0  0  0  0  0  0  0  0
  -19.5148   11.9436  -20.5349 O   0  0  0  0  0  0  0  0  0  0  0  0
  -18.5948   10.9054  -20.6440 C   0  0  0  0  0  0  0  0  0  0  0  0
  -19.0474    9.9987  -21.7240 C   0  0  0  0  0  0  0  0  0  0  0  0
  -18.2571    8.9498  -21.9892 C   0  0  0  0  0  0  0  0  0  0  0  0
  -17.0760    8.7672  -21.2354 C   0  0  0  0  0  0  0  0  0  0  0  0
  -16.1466    7.8419  -21.2925 N   0  0  0  0  0  0  0  0  0  0  0  0
  -15.2302    8.1763  -20.3371 C   0  0  0  0  0  0  0  0  0  0  0  0
  -15.6012    9.3316  -19.6864 C   0  0  0  0  0  0  0  0  0  0  0  0
  -16.7928    9.7003  -20.2543 N   0  0  0  0  0  0  0  0  0  0  0  0
  -17.5309   10.7925  -19.9144 N   0  0  0  0  0  0  0  0  0  0  0  0
  -14.0890    7.4510  -20.0795 N   0  0  0  0  0  0  0  0  0  0  0  0
  -14.0267    6.4267  -19.1587 C   0  0  0  0  0  0  0  0  0  0  0  0
  -14.9285    6.0271  -18.4366 O   0  0  0  0  0  0  0  0  0  0  0  0
  -13.2603    7.7129  -20.5873 H   0  0  0  0  0  0  0  0  0  0  0  0
  -12.7054    5.7364  -19.0206 C   0  0  0  0  0  0  0  0  0  0  0  0
  -12.4407    4.4487  -19.7659 C   0  0  0  0  0  0  0  0  0  0  0  0
  -12.4326    4.4616  -18.2644 C   0  0  0  0  0  0  0  0  0  0  0  0
 11 12  1  0  0  0
 12 13  1  0  0  0
 12 17  2  0  0  0
 13 14  2  0  0  0
 14  7  1  0  0  0
 14 15  1  0  0  0
  7  8  2  0  0  0
  7  9  1  0  0  0
  9  1  1  0  0  0
  9 10  1  0  0  0
  1  2  1  0  0  0
  1  6  2  0  0  0
  2  3  2  0  0  0
  3  4  1  0  0  0
  4 18  1  0  0  0
  4  5  2  0  0  0
 18 19  1  0  0  0
 19 20  1  0  0  0
 19 27  2  0  0  0
 20 21  2  0  0  0
 21 22  1  0  0  0
 22 23  2  0  0  0
 22 26  1  0  0  0
 23 24  1  0  0  0
 24 28  1  0  0  0
 24 25  2  0  0  0
 28 29  1  0  0  0
 28 31  1  0  0  0
 29 30  2  0  0  0
 29 32  1  0  0  0
 32 33  1  0  0  0
 32 34  1  0  0  0
 33 34  1  0  0  0
 25 26  1  0  0  0
 26 27  1  0  0  0
  5  6  1  0  0  0
 15 16  1  0  0  0
 15 17  1  0  0  0
M  END
> <minimizedAffinity>
-6.21009

$$$$
