CHEMBL424323


 34 39  0  0  0  0  0  0  0  0999 V2000
  -28.8258   -7.9722   -7.9637 C   0  0  0  0  0  0  0  0  0  0  0  0
  -27.9340   -7.2137   -8.7289 C   0  0  0  0  0  0  0  0  0  0  0  0
  -27.8738   -5.8256   -8.6175 C   0  0  0  0  0  0  0  0  0  0  0  0
  -28.7573   -5.1904   -7.7294 C   0  0  0  0  0  0  0  0  0  0  0  0
  -29.5733   -5.9609   -6.8740 C   0  0  0  0  0  0  0  0  0  0  0  0
  -29.5942   -7.3554   -6.9768 C   0  0  0  0  0  0  0  0  0  0  0  0
  -30.1002   -5.0010   -6.0459 C   0  0  0  0  0  0  0  0  0  0  0  0
  -30.4426   -5.1905   -4.6882 C   0  0  0  0  0  0  0  0  0  0  0  0
  -30.3137   -4.0183   -3.8545 C   0  0  0  0  0  0  0  0  0  0  0  0
  -30.1024   -2.7535   -4.4406 C   0  0  0  0  0  0  0  0  0  0  0  0
  -30.5607   -2.7234   -5.7512 C   0  0  0  0  0  0  0  0  0  0  0  0
  -30.0218   -3.7252   -6.5238 C   0  0  0  0  0  0  0  0  0  0  0  0
  -28.9180   -3.8309   -7.3869 N   0  0  0  0  0  0  0  0  0  0  0  0
  -30.9757   -1.3421   -6.0412 C   0  0  0  0  0  0  0  0  0  0  0  0
  -29.7960   -0.6555   -5.4261 C   0  0  0  0  0  0  0  0  0  0  0  0
  -29.1359    0.3454   -6.1351 C   0  0  0  0  0  0  0  0  0  0  0  0
  -27.7730    0.4292   -5.9582 C   0  0  0  0  0  0  0  0  0  0  0  0
  -27.1358   -0.4109   -5.0193 C   0  0  0  0  0  0  0  0  0  0  0  0
  -27.8454   -1.3822   -4.2413 C   0  0  0  0  0  0  0  0  0  0  0  0
  -29.2150   -1.5472   -4.4426 C   0  0  0  0  0  0  0  0  0  0  0  0
  -31.2253   -4.2525   -2.7560 C   0  0  0  0  0  0  0  0  0  0  0  0
  -31.6910   -3.4993   -1.8966 O   0  0  0  0  0  0  0  0  0  0  0  0
  -31.7798   -5.5239   -2.9682 N   0  0  0  0  0  0  0  0  0  0  0  0
  -31.3163   -6.2219   -4.1443 C   0  0  0  0  0  0  0  0  0  0  0  0
  -32.6973   -5.6942   -2.5765 H   0  0  0  0  0  0  0  0  0  0  0  0
  -28.9653   -9.4408   -8.2272 C   0  0  0  0  0  0  0  0  0  0  0  0
  -29.6649   -9.5961   -9.4505 O   0  0  0  0  0  0  0  0  0  0  0  0
  -28.8702  -10.2752  -11.5654 C   0  0  0  0  0  0  0  0  0  0  0  0
  -29.2102  -10.7340  -10.1654 C   0  0  0  0  0  0  0  0  0  0  0  0
  -27.7944   -2.8950   -7.3344 C   0  0  0  0  0  0  0  0  0  0  0  0
  -27.5139   -1.8665   -8.4294 C   0  0  0  0  0  0  0  0  0  0  0  0
  -27.9113   -2.3665   -9.8018 C   0  0  0  0  0  0  0  0  0  0  0  0
  -26.7640   -2.8393  -10.4945 O   0  0  0  0  0  0  0  0  0  0  0  0
  -26.1924   -2.0750  -10.6838 H   0  0  0  0  0  0  0  0  0  0  0  0
 28 29  1  0  0  0
 29 27  1  0  0  0
 27 26  1  0  0  0
 26  1  1  0  0  0
  1  2  1  0  0  0
  1  6  2  0  0  0
  2  3  2  0  0  0
  3  4  1  0  0  0
  4  5  2  0  0  0
  4 13  1  0  0  0
  5  6  1  0  0  0
  5  7  1  0  0  0
  7  8  1  0  0  0
  7 12  2  0  0  0
  8  9  2  0  0  0
  8 24  1  0  0  0
  9 10  1  0  0  0
  9 21  1  0  0  0
 10 11  2  0  0  0
 10 20  1  0  0  0
 11 12  1  0  0  0
 11 14  1  0  0  0
 12 13  1  0  0  0
 13 30  1  0  0  0
 30 31  1  0  0  0
 31 32  1  0  0  0
 32 33  1  0  0  0
 33 34  1  0  0  0
 14 15  1  0  0  0
 15 16  1  0  0  0
 15 20  2  0  0  0
 16 17  2  0  0  0
 17 18  1  0  0  0
 18 19  2  0  0  0
 19 20  1  0  0  0
 21 22  2  0  0  0
 21 23  1  0  0  0
 23 24  1  0  0  0
 23 25  1  0  0  0
M  END
> <minimizedAffinity>
-7.17447

$$$$
