CHEMBL3965614


 34 38  0  0  0  0  0  0  0  0999 V2000
  -29.5162   -6.6946   -5.6629 N   0  0  0  0  0  0  0  0  0  0  0  0
  -29.2331   -5.3131   -6.0191 C   0  0  0  0  0  0  0  0  0  0  0  0
  -29.4195   -4.2725   -5.0742 C   0  0  0  0  0  0  0  0  0  0  0  0
  -29.1078   -2.9455   -5.3770 C   0  0  0  0  0  0  0  0  0  0  0  0
  -28.5933   -2.6261   -6.6301 C   0  0  0  0  0  0  0  0  0  0  0  0
  -28.2527   -1.3430   -6.9287 N   0  0  0  0  0  0  0  0  0  0  0  0
  -27.7239   -1.0184   -8.1370 C   0  0  0  0  0  0  0  0  0  0  0  0
  -27.5411   -2.0175   -9.1084 C   0  0  0  0  0  0  0  0  0  0  0  0
  -27.8926   -3.2988   -8.8071 N   0  0  0  0  0  0  0  0  0  0  0  0
  -28.4031   -3.6288   -7.5913 C   0  0  0  0  0  0  0  0  0  0  0  0
  -28.7160   -4.9574   -7.2915 C   0  0  0  0  0  0  0  0  0  0  0  0
  -26.9594   -1.7195  -10.4330 C   0  0  0  0  0  0  0  0  0  0  0  0
  -27.6422   -1.6373  -11.6347 C   0  0  0  0  0  0  0  0  0  0  0  0
  -26.7650   -1.3643  -12.6211 N   0  0  0  0  0  0  0  0  0  0  0  0
  -25.5607   -1.2759  -12.0764 N   0  0  0  0  0  0  0  0  0  0  0  0
  -24.3406   -1.0108  -12.8267 C   0  0  0  0  0  0  0  0  0  0  0  0
  -25.6355   -1.4811  -10.7493 C   0  0  0  0  0  0  0  0  0  0  0  0
  -31.5289   -9.1432   -7.7556 C   0  0  0  0  0  0  0  0  0  0  0  0
  -30.6242   -9.5202   -8.7441 C   0  0  0  0  0  0  0  0  0  0  0  0
  -29.3402   -8.9964   -8.7461 C   0  0  0  0  0  0  0  0  0  0  0  0
  -28.2042   -9.4765   -9.9995 Cl  0  0  0  0  0  0  0  0  0  0  0  0
  -28.9431   -8.0999   -7.7518 C   0  0  0  0  0  0  0  0  0  0  0  0
  -29.8347   -7.6600   -6.7284 C   0  0  0  0  0  0  0  0  0  0  0  0
  -31.1367   -8.2072   -6.7771 C   0  0  0  0  0  0  0  0  0  0  0  0
  -33.2164  -10.6032   -6.8115 C   0  0  0  0  0  0  0  0  0  0  0  0
  -32.7609   -9.7100   -7.7584 O   0  0  0  0  0  0  0  0  0  0  0  0
  -29.3823   -7.0249   -4.2222 C   0  0  0  0  0  0  0  0  0  0  0  0
  -28.6991   -8.3398   -3.9181 C   0  0  0  0  0  0  0  0  0  0  0  0
  -27.2820   -8.5222   -4.4372 C   0  0  0  0  0  0  0  0  0  0  0  0
  -27.0065   -9.9816   -4.4937 N   0  0  0  0  0  0  0  0  0  0  0  0
  -25.7800  -10.2645   -5.2450 C   0  0  0  0  0  0  0  0  0  0  0  0
  -26.2328  -10.4038   -6.6842 C   0  0  0  0  0  0  0  0  0  0  0  0
  -27.4383  -11.2910   -6.4921 C   0  0  0  0  0  0  0  0  0  0  0  0
  -28.0747  -10.7036   -5.2415 C   0  0  0  0  0  0  0  0  0  0  0  0
 25 26  1  0  0  0
 26 18  1  0  0  0
 18 19  1  0  0  0
 18 24  2  0  0  0
 19 20  2  0  0  0
 20 21  1  0  0  0
 20 22  1  0  0  0
 22 23  2  0  0  0
 23  1  1  0  0  0
 23 24  1  0  0  0
  1 27  1  0  0  0
  1  2  1  0  0  0
 27 28  1  0  0  0
 28 29  1  0  0  0
 29 30  1  0  0  0
 30 31  1  0  0  0
 30 34  1  0  0  0
 31 32  1  0  0  0
 32 33  1  0  0  0
 33 34  1  0  0  0
  2  3  1  0  0  0
  2 11  2  0  0  0
  3  4  2  0  0  0
  4  5  1  0  0  0
  5  6  1  0  0  0
  5 10  2  0  0  0
  6  7  2  0  0  0
  7  8  1  0  0  0
  8 12  1  0  0  0
  8  9  2  0  0  0
 12 13  1  0  0  0
 12 17  2  0  0  0
 13 14  2  0  0  0
 14 15  1  0  0  0
 15 16  1  0  0  0
 15 17  1  0  0  0
  9 10  1  0  0  0
 10 11  1  0  0  0
M  END
> <minimizedAffinity>
-8.20627

$$$$
