CHEMBL198601


 38 41  0  0  0  0  0  0  0  0999 V2000
  -15.3782    0.6140  -13.5815 C   0  0  0  0  0  0  0  0  0  0  0  0
  -13.7031    0.9856  -13.5916 S   0  0  0  0  0  0  0  0  0  0  0  0
  -13.8826    2.1757  -14.7793 C   0  0  0  0  0  0  0  0  0  0  0  0
  -12.7939    2.8288  -15.2061 N   0  0  0  0  0  0  0  0  0  0  0  0
  -13.0746    3.7261  -16.1457 C   0  0  0  0  0  0  0  0  0  0  0  0
  -14.2778    4.0134  -16.6514 N   0  0  0  0  0  0  0  0  0  0  0  0
  -15.3524    3.3508  -16.1894 C   0  0  0  0  0  0  0  0  0  0  0  0
  -16.5486    3.7409  -16.7740 N   0  0  0  0  0  0  0  0  0  0  0  0
  -15.1953    2.3430  -15.1942 C   0  0  0  0  0  0  0  0  0  0  0  0
  -16.0891    1.4106  -14.4837 C   0  0  0  0  0  0  0  0  0  0  0  0
  -16.4198    4.5847  -17.3201 H   0  0  0  0  0  0  0  0  0  0  0  0
  -17.3552    3.7305  -16.1648 H   0  0  0  0  0  0  0  0  0  0  0  0
  -17.5444    1.2600  -14.6933 C   0  0  0  0  0  0  0  0  0  0  0  0
  -18.4134    2.2090  -14.1573 C   0  0  0  0  0  0  0  0  0  0  0  0
  -19.7971    2.0219  -14.1841 C   0  0  0  0  0  0  0  0  0  0  0  0
  -20.3662    0.9478  -14.8644 C   0  0  0  0  0  0  0  0  0  0  0  0
  -19.5122    0.0605  -15.5203 C   0  0  0  0  0  0  0  0  0  0  0  0
  -18.1171    0.1891  -15.3947 C   0  0  0  0  0  0  0  0  0  0  0  0
  -21.7544    0.6894  -14.8865 N   0  0  0  0  0  0  0  0  0  0  0  0
  -22.4920    0.1358  -13.8545 C   0  0  0  0  0  0  0  0  0  0  0  0
  -22.0681   -0.0985  -12.7275 O   0  0  0  0  0  0  0  0  0  0  0  0
  -23.7763   -0.1958  -14.2629 N   0  0  0  0  0  0  0  0  0  0  0  0
  -22.2659    0.9632  -15.7123 H   0  0  0  0  0  0  0  0  0  0  0  0
  -23.8420   -0.5210  -15.2156 H   0  0  0  0  0  0  0  0  0  0  0  0
  -24.6972   -0.7589  -13.3496 C   0  0  0  0  0  0  0  0  0  0  0  0
  -24.3817   -0.7636  -11.9917 C   0  0  0  0  0  0  0  0  0  0  0  0
  -25.3082   -1.2472  -11.0664 C   0  0  0  0  0  0  0  0  0  0  0  0
  -26.5260   -1.7770  -11.4990 C   0  0  0  0  0  0  0  0  0  0  0  0
  -26.8344   -1.8208  -12.8618 C   0  0  0  0  0  0  0  0  0  0  0  0
  -28.1180   -2.4229  -13.3513 C   0  0  0  0  0  0  0  0  0  0  0  0
  -25.9178   -1.2938  -13.7808 C   0  0  0  0  0  0  0  0  0  0  0  0
  -15.8102   -0.4638  -12.6138 C   0  0  0  0  0  0  0  0  0  0  0  0
  -15.6246   -1.8793  -13.1506 C   0  0  0  0  0  0  0  0  0  0  0  0
  -16.6938   -5.2181  -11.7521 C   0  0  0  0  0  0  0  0  0  0  0  0
  -16.3441   -4.1178  -12.6140 N   0  0  0  0  0  0  0  0  0  0  0  0
  -15.9672   -2.9017  -12.0888 C   0  0  0  0  0  0  0  0  0  0  0  0
  -15.9286   -2.6726  -10.8849 O   0  0  0  0  0  0  0  0  0  0  0  0
  -16.3148   -4.2641  -13.6145 H   0  0  0  0  0  0  0  0  0  0  0  0
 34 35  1  0  0  0
 35 36  1  0  0  0
 35 38  1  0  0  0
 36 37  2  0  0  0
 36 33  1  0  0  0
 33 32  1  0  0  0
 32  1  1  0  0  0
  1  2  1  0  0  0
  1 10  2  0  0  0
  2  3  1  0  0  0
  3  4  1  0  0  0
  3  9  2  0  0  0
  4  5  2  0  0  0
  5  6  1  0  0  0
  6  7  2  0  0  0
  7  8  1  0  0  0
  7  9  1  0  0  0
  8 11  1  0  0  0
  8 12  1  0  0  0
  9 10  1  0  0  0
 10 13  1  0  0  0
 13 14  1  0  0  0
 13 18  2  0  0  0
 14 15  2  0  0  0
 15 16  1  0  0  0
 16 19  1  0  0  0
 16 17  2  0  0  0
 19 20  1  0  0  0
 19 23  1  0  0  0
 20 21  2  0  0  0
 20 22  1  0  0  0
 22 25  1  0  0  0
 22 24  1  0  0  0
 25 26  1  0  0  0
 25 31  2  0  0  0
 26 27  2  0  0  0
 27 28  1  0  0  0
 28 29  2  0  0  0
 29 30  1  0  0  0
 29 31  1  0  0  0
 17 18  1  0  0  0
M  END
> <minimizedAffinity>
-9.91408

$$$$
