CHEMBL1965170


 44 48  0  0  0  0  0  0  0  0999 V2000
  -21.9230    0.2603  -14.2400 C   0  0  0  0  0  0  0  0  0  0  0  0
  -21.1226   -0.7815  -14.6656 C   0  0  0  0  0  0  0  0  0  0  0  0
  -19.5868   -0.2934  -15.1527 S   0  0  0  0  0  0  0  0  0  0  0  0
  -19.9456    1.3820  -14.9296 C   0  0  0  0  0  0  0  0  0  0  0  0
  -19.0949    2.4779  -15.1914 C   0  0  0  0  0  0  0  0  0  0  0  0
  -19.6221    3.7224  -14.8950 C   0  0  0  0  0  0  0  0  0  0  0  0
  -20.8366    3.9361  -14.3677 N   0  0  0  0  0  0  0  0  0  0  0  0
  -21.6465    2.8942  -14.0995 C   0  0  0  0  0  0  0  0  0  0  0  0
  -22.8463    3.2739  -13.5121 N   0  0  0  0  0  0  0  0  0  0  0  0
  -21.2434    1.5575  -14.3948 C   0  0  0  0  0  0  0  0  0  0  0  0
  -22.7821    4.2518  -13.2475 H   0  0  0  0  0  0  0  0  0  0  0  0
  -23.1427    2.6532  -12.7694 H   0  0  0  0  0  0  0  0  0  0  0  0
  -25.6825   -0.9171  -12.5477 C   0  0  0  0  0  0  0  0  0  0  0  0
  -25.2886   -1.3863  -13.8005 C   0  0  0  0  0  0  0  0  0  0  0  0
  -24.0738   -0.9831  -14.3534 C   0  0  0  0  0  0  0  0  0  0  0  0
  -23.2476   -0.0647  -13.6862 C   0  0  0  0  0  0  0  0  0  0  0  0
  -23.7195    0.4949  -12.4930 C   0  0  0  0  0  0  0  0  0  0  0  0
  -24.9160    0.0540  -11.9085 C   0  0  0  0  0  0  0  0  0  0  0  0
  -27.8659   -2.3200  -10.0261 N   0  0  0  0  0  0  0  0  0  0  0  0
  -26.6988   -1.7899  -10.5412 C   0  0  0  0  0  0  0  0  0  0  0  0
  -25.6750   -1.5809   -9.8971 O   0  0  0  0  0  0  0  0  0  0  0  0
  -26.8081   -1.4715  -11.8891 N   0  0  0  0  0  0  0  0  0  0  0  0
  -28.5739   -2.6037  -10.6880 H   0  0  0  0  0  0  0  0  0  0  0  0
  -27.7100   -1.1099  -12.1640 H   0  0  0  0  0  0  0  0  0  0  0  0
  -28.5681   -3.1931   -5.9313 C   0  0  0  0  0  0  0  0  0  0  0  0
  -28.7266   -4.1829   -6.8993 C   0  0  0  0  0  0  0  0  0  0  0  0
  -28.5095   -3.9011   -8.2419 C   0  0  0  0  0  0  0  0  0  0  0  0
  -28.1060   -2.6240   -8.6613 C   0  0  0  0  0  0  0  0  0  0  0  0
  -27.9512   -1.6363   -7.7032 C   0  0  0  0  0  0  0  0  0  0  0  0
  -28.1739   -1.9169   -6.3480 C   0  0  0  0  0  0  0  0  0  0  0  0
  -27.9270   -4.3130   -3.9410 C   0  0  0  0  0  0  0  0  0  0  0  0
  -28.7704   -3.3613   -4.5923 O   0  0  0  0  0  0  0  0  0  0  0  0
  -17.7667    2.3367  -15.7572 C   0  0  0  0  0  0  0  0  0  0  0  0
  -16.9712    3.2065  -16.5390 C   0  0  0  0  0  0  0  0  0  0  0  0
  -15.7467    2.7245  -16.7627 N   0  0  0  0  0  0  0  0  0  0  0  0
  -15.7617    1.5258  -16.1626 N   0  0  0  0  0  0  0  0  0  0  0  0
  -16.9531    1.2370  -15.5615 C   0  0  0  0  0  0  0  0  0  0  0  0
  -14.5464    0.7355  -16.1232 C   0  0  0  0  0  0  0  0  0  0  0  0
  -13.5337    1.2323  -15.0814 C   0  0  0  0  0  0  0  0  0  0  0  0
  -13.7209    2.6135  -14.7577 O   0  0  0  0  0  0  0  0  0  0  0  0
  -14.6552    2.7393  -14.4923 H   0  0  0  0  0  0  0  0  0  0  0  0
  -13.5250    0.3889  -13.7968 C   0  0  0  0  0  0  0  0  0  0  0  0
  -14.4703    0.8574  -12.8368 O   0  0  0  0  0  0  0  0  0  0  0  0
  -14.7047    1.7764  -13.0577 H   0  0  0  0  0  0  0  0  0  0  0  0
 31 32  1  0  0  0
 32 25  1  0  0  0
 25 26  1  0  0  0
 25 30  2  0  0  0
 26 27  2  0  0  0
 27 28  1  0  0  0
 28 19  1  0  0  0
 28 29  2  0  0  0
 19 20  1  0  0  0
 19 23  1  0  0  0
 20 21  2  0  0  0
 20 22  1  0  0  0
 22 13  1  0  0  0
 22 24  1  0  0  0
 13 14  1  0  0  0
 13 18  2  0  0  0
 14 15  2  0  0  0
 15 16  1  0  0  0
 16  1  1  0  0  0
 16 17  2  0  0  0
  1  2  2  0  0  0
  1 10  1  0  0  0
  2  3  1  0  0  0
  3  4  1  0  0  0
  4  5  1  0  0  0
  4 10  2  0  0  0
  5 33  1  0  0  0
  5  6  2  0  0  0
 33 34  1  0  0  0
 33 37  2  0  0  0
 34 35  2  0  0  0
 35 36  1  0  0  0
 36 38  1  0  0  0
 36 37  1  0  0  0
 38 39  1  0  0  0
 39 40  1  0  0  0
 39 42  1  0  0  0
 40 41  1  0  0  0
 42 43  1  0  0  0
 43 44  1  0  0  0
  6  7  1  0  0  0
  7  8  2  0  0  0
  8  9  1  0  0  0
  8 10  1  0  0  0
  9 11  1  0  0  0
  9 12  1  0  0  0
 17 18  1  0  0  0
 29 30  1  0  0  0
M  END
> <minimizedAffinity>
-9.81758

$$$$
