CHEMBL4101428


 32 35  0  0  0  0  0  0  0  0999 V2000
  -23.1356   11.2938  -17.3858 C   0  0  0  0  0  0  0  0  0  0  0  0
  -23.3496   12.2280  -16.3607 C   0  0  0  0  0  0  0  0  0  0  0  0
  -24.4226   12.1170  -15.4704 C   0  0  0  0  0  0  0  0  0  0  0  0
  -25.3592   11.0958  -15.5988 C   0  0  0  0  0  0  0  0  0  0  0  0
  -25.1780   10.1634  -16.6175 C   0  0  0  0  0  0  0  0  0  0  0  0
  -24.0507   10.2358  -17.4518 C   0  0  0  0  0  0  0  0  0  0  0  0
  -24.4345   12.6590  -20.4729 C   0  0  0  0  0  0  0  0  0  0  0  0
  -22.9761   12.3961  -20.5872 C   0  0  0  0  0  0  0  0  0  0  0  0
  -22.4101   12.6590  -21.7731 N   0  0  0  0  0  0  0  0  0  0  0  0
  -21.1127   12.3773  -21.5799 N   0  0  0  0  0  0  0  0  0  0  0  0
  -20.8266   11.9260  -20.3315 C   0  0  0  0  0  0  0  0  0  0  0  0
  -19.5901   11.5975  -19.9166 N   0  0  0  0  0  0  0  0  0  0  0  0
  -19.5638   11.1756  -18.6433 C   0  0  0  0  0  0  0  0  0  0  0  0
  -20.6743   11.0604  -17.8220 C   0  0  0  0  0  0  0  0  0  0  0  0
  -21.9663   11.4115  -18.2843 C   0  0  0  0  0  0  0  0  0  0  0  0
  -22.0295   11.8824  -19.6279 C   0  0  0  0  0  0  0  0  0  0  0  0
  -20.4587   12.5118  -22.3381 H   0  0  0  0  0  0  0  0  0  0  0  0
  -26.4574   10.9303  -14.7268 N   0  0  0  0  0  0  0  0  0  0  0  0
  -27.7828   10.9263  -15.0979 C   0  0  0  0  0  0  0  0  0  0  0  0
  -28.2153   10.9931  -16.2421 O   0  0  0  0  0  0  0  0  0  0  0  0
  -28.6368   10.8719  -14.0228 N   0  0  0  0  0  0  0  0  0  0  0  0
  -26.2565   10.8597  -13.7428 H   0  0  0  0  0  0  0  0  0  0  0  0
  -28.2828   10.7294  -13.0908 H   0  0  0  0  0  0  0  0  0  0  0  0
  -30.0708   10.8615  -14.2491 C   0  0  0  0  0  0  0  0  0  0  0  0
  -30.8114   11.8866  -13.3881 C   0  0  0  0  0  0  0  0  0  0  0  0
  -32.2814   11.9841  -13.7901 C   0  0  0  0  0  0  0  0  0  0  0  0
  -33.0687   10.7496  -13.4369 C   0  0  0  0  0  0  0  0  0  0  0  0
  -32.8323   10.0768  -12.2310 C   0  0  0  0  0  0  0  0  0  0  0  0
  -33.6027    8.9678  -11.8789 C   0  0  0  0  0  0  0  0  0  0  0  0
  -34.6060    8.5150  -12.7337 C   0  0  0  0  0  0  0  0  0  0  0  0
  -34.8272    9.1585  -13.9499 C   0  0  0  0  0  0  0  0  0  0  0  0
  -34.0583   10.2678  -14.3035 C   0  0  0  0  0  0  0  0  0  0  0  0
  7  8  1  0  0  0
  8  9  2  0  0  0
  8 16  1  0  0  0
  9 10  1  0  0  0
 10 11  1  0  0  0
 10 17  1  0  0  0
 11 12  1  0  0  0
 11 16  2  0  0  0
 12 13  2  0  0  0
 13 14  1  0  0  0
 14 15  2  0  0  0
 15  1  1  0  0  0
 15 16  1  0  0  0
  1  2  1  0  0  0
  1  6  2  0  0  0
  2  3  2  0  0  0
  3  4  1  0  0  0
  4 18  1  0  0  0
  4  5  2  0  0  0
 18 19  1  0  0  0
 18 22  1  0  0  0
 19 20  2  0  0  0
 19 21  1  0  0  0
 21 24  1  0  0  0
 21 23  1  0  0  0
 24 25  1  0  0  0
 25 26  1  0  0  0
 26 27  1  0  0  0
 27 28  1  0  0  0
 27 32  2  0  0  0
 28 29  2  0  0  0
 29 30  1  0  0  0
 30 31  2  0  0  0
 31 32  1  0  0  0
  5  6  1  0  0  0
M  END
> <minimizedAffinity>
-6.72227

$$$$
