CHEMBL313821


 36 40  0  0  0  0  0  0  0  0999 V2000
  -15.3054    0.2301  -14.4864 C   0  0  0  0  0  0  0  0  0  0  0  0
  -14.1263   -0.3197  -15.0626 C   0  0  0  0  0  0  0  0  0  0  0  0
  -13.5802   -1.5280  -14.6415 C   0  0  0  0  0  0  0  0  0  0  0  0
  -14.2322   -2.2178  -13.6426 C   0  0  0  0  0  0  0  0  0  0  0  0
  -15.3912   -1.7082  -13.0649 C   0  0  0  0  0  0  0  0  0  0  0  0
  -15.9465   -0.5049  -13.4669 C   0  0  0  0  0  0  0  0  0  0  0  0
  -15.8380   -2.5672  -12.0564 N   0  0  0  0  0  0  0  0  0  0  0  0
  -14.9940   -3.6718  -11.9212 C   0  0  0  0  0  0  0  0  0  0  0  0
  -15.0784   -4.5615  -11.0961 O   0  0  0  0  0  0  0  0  0  0  0  0
  -13.9470   -3.5024  -12.9903 C   0  0  0  0  0  0  0  0  0  0  0  0
  -12.9440   -4.2698  -13.4331 C   0  0  0  0  0  0  0  0  0  0  0  0
  -16.6355   -2.4063  -11.4628 H   0  0  0  0  0  0  0  0  0  0  0  0
  -12.5258   -5.5689  -13.0551 C   0  0  0  0  0  0  0  0  0  0  0  0
  -12.9691   -6.6932  -13.7097 N   0  0  0  0  0  0  0  0  0  0  0  0
  -12.4112   -7.7975  -13.1315 C   0  0  0  0  0  0  0  0  0  0  0  0
  -11.6291   -7.4025  -12.0665 C   0  0  0  0  0  0  0  0  0  0  0  0
  -11.6623   -5.9740  -12.0316 C   0  0  0  0  0  0  0  0  0  0  0  0
  -10.9527   -8.3935  -11.1704 C   0  0  0  0  0  0  0  0  0  0  0  0
  -10.9901   -9.8223  -11.7496 C   0  0  0  0  0  0  0  0  0  0  0  0
  -12.3317  -10.1545  -12.4255 C   0  0  0  0  0  0  0  0  0  0  0  0
  -12.6232   -9.1953  -13.5912 C   0  0  0  0  0  0  0  0  0  0  0  0
  -13.6083   -6.7022  -14.5012 H   0  0  0  0  0  0  0  0  0  0  0  0
  -10.9233   -5.0761  -11.0665 C   0  0  0  0  0  0  0  0  0  0  0  0
  -11.6799   -4.8783   -9.7552 C   0  0  0  0  0  0  0  0  0  0  0  0
  -12.1811   -3.4689   -9.5887 C   0  0  0  0  0  0  0  0  0  0  0  0
  -12.9822   -3.0902   -8.7530 O   0  0  0  0  0  0  0  0  0  0  0  0
  -11.6276   -2.6276  -10.5010 O   0  0  0  0  0  0  0  0  0  0  0  0
  -11.0060   -3.0653  -11.1064 H   0  0  0  0  0  0  0  0  0  0  0  0
  -17.1497    1.8684  -15.1962 C   0  0  0  0  0  0  0  0  0  0  0  0
  -17.4918    3.0705  -15.8367 C   0  0  0  0  0  0  0  0  0  0  0  0
  -16.5097    3.9746  -16.2465 C   0  0  0  0  0  0  0  0  0  0  0  0
  -15.1751    3.7075  -15.9884 C   0  0  0  0  0  0  0  0  0  0  0  0
  -14.8260    2.5178  -15.3575 C   0  0  0  0  0  0  0  0  0  0  0  0
  -15.7886    1.5457  -14.9906 C   0  0  0  0  0  0  0  0  0  0  0  0
  -19.4393    1.1650  -15.1286 C   0  0  0  0  0  0  0  0  0  0  0  0
  -18.0795    0.9512  -14.7752 O   0  0  0  0  0  0  0  0  0  0  0  0
 35 36  1  0  0  0
 36 29  1  0  0  0
 29 30  1  0  0  0
 29 34  2  0  0  0
 30 31  2  0  0  0
 31 32  1  0  0  0
 32 33  2  0  0  0
 33 34  1  0  0  0
 34  1  1  0  0  0
  1  2  1  0  0  0
  1  6  2  0  0  0
  2  3  2  0  0  0
  3  4  1  0  0  0
  4  5  2  0  0  0
  4 10  1  0  0  0
  5  6  1  0  0  0
  5  7  1  0  0  0
  7  8  1  0  0  0
  7 12  1  0  0  0
  8  9  2  0  0  0
  8 10  1  0  0  0
 10 11  2  0  0  0
 11 13  1  0  0  0
 13 14  1  0  0  0
 13 17  2  0  0  0
 14 15  1  0  0  0
 14 22  1  0  0  0
 15 16  2  0  0  0
 15 21  1  0  0  0
 16 17  1  0  0  0
 16 18  1  0  0  0
 17 23  1  0  0  0
 23 24  1  0  0  0
 24 25  1  0  0  0
 25 26  2  0  0  0
 25 27  1  0  0  0
 27 28  1  0  0  0
 18 19  1  0  0  0
 19 20  1  0  0  0
 20 21  1  0  0  0
M  END
> <minimizedAffinity>
-8.13210

$$$$
