CHEMBL3981808


 37 40  0  0  0  0  0  0  0  0999 V2000
  -14.8793    2.1853  -15.6456 C   0  0  0  0  0  0  0  0  0  0  0  0
  -16.0779    1.4725  -15.6870 C   0  0  0  0  0  0  0  0  0  0  0  0
  -16.4313    0.6056  -14.6495 C   0  0  0  0  0  0  0  0  0  0  0  0
  -15.5675    0.3740  -13.5780 C   0  0  0  0  0  0  0  0  0  0  0  0
  -14.3299    1.0134  -13.5695 C   0  0  0  0  0  0  0  0  0  0  0  0
  -13.9897    1.9081  -14.5954 C   0  0  0  0  0  0  0  0  0  0  0  0
  -13.3589    0.8813  -18.0309 N   0  0  0  0  0  0  0  0  0  0  0  0
  -12.6874    2.0616  -17.9114 C   0  0  0  0  0  0  0  0  0  0  0  0
  -11.4970    2.2277  -18.1230 O   0  0  0  0  0  0  0  0  0  0  0  0
  -13.5429    3.1468  -17.6143 N   0  0  0  0  0  0  0  0  0  0  0  0
  -14.5630    3.2192  -16.6459 C   0  0  0  0  0  0  0  0  0  0  0  0
  -15.1735    4.4560  -16.8064 C   0  0  0  0  0  0  0  0  0  0  0  0
  -14.5686    5.1380  -17.8879 C   0  0  0  0  0  0  0  0  0  0  0  0
  -14.8152    6.3710  -18.5213 C   0  0  0  0  0  0  0  0  0  0  0  0
  -14.0419    6.7413  -19.6259 C   0  0  0  0  0  0  0  0  0  0  0  0
  -13.0206    5.9231  -20.0863 C   0  0  0  0  0  0  0  0  0  0  0  0
  -12.7428    4.7107  -19.4542 C   0  0  0  0  0  0  0  0  0  0  0  0
  -13.5347    4.3313  -18.3532 C   0  0  0  0  0  0  0  0  0  0  0  0
  -12.8333    0.0759  -18.3401 H   0  0  0  0  0  0  0  0  0  0  0  0
  -14.3688    0.8306  -18.0348 H   0  0  0  0  0  0  0  0  0  0  0  0
  -15.9162   -0.4553  -12.4887 N   0  0  0  0  0  0  0  0  0  0  0  0
  -15.2474   -1.6047  -12.1496 C   0  0  0  0  0  0  0  0  0  0  0  0
  -14.1648   -1.9491  -12.6134 O   0  0  0  0  0  0  0  0  0  0  0  0
  -15.9522   -2.3852  -11.2350 N   0  0  0  0  0  0  0  0  0  0  0  0
  -16.5474   -0.0854  -11.7907 H   0  0  0  0  0  0  0  0  0  0  0  0
  -16.9503   -2.4087  -11.4042 H   0  0  0  0  0  0  0  0  0  0  0  0
  -15.3812   -3.6270  -10.8456 C   0  0  0  0  0  0  0  0  0  0  0  0
  -14.4533   -3.6859   -9.7981 C   0  0  0  0  0  0  0  0  0  0  0  0
  -13.7021   -4.8457   -9.5702 C   0  0  0  0  0  0  0  0  0  0  0  0
  -13.9317   -5.9682  -10.3825 C   0  0  0  0  0  0  0  0  0  0  0  0
  -14.9093   -5.9344  -11.3835 C   0  0  0  0  0  0  0  0  0  0  0  0
  -15.6390   -4.7706  -11.6000 C   0  0  0  0  0  0  0  0  0  0  0  0
  -16.5219   -4.7214  -12.6091 F   0  0  0  0  0  0  0  0  0  0  0  0
  -12.6217   -4.8628   -8.5141 C   0  0  0  0  0  0  0  0  0  0  0  0
  -12.9694   -5.5321   -7.3794 F   0  0  0  0  0  0  0  0  0  0  0  0
  -11.4792   -5.4581   -8.9565 F   0  0  0  0  0  0  0  0  0  0  0  0
  -12.2615   -3.6121   -8.1166 F   0  0  0  0  0  0  0  0  0  0  0  0
  7  8  1  0  0  0
  7 19  1  0  0  0
  7 20  1  0  0  0
  8  9  2  0  0  0
  8 10  1  0  0  0
 10 11  1  0  0  0
 10 18  1  0  0  0
 11  1  1  0  0  0
 11 12  2  0  0  0
  1  2  1  0  0  0
  1  6  2  0  0  0
  2  3  2  0  0  0
  3  4  1  0  0  0
  4 21  1  0  0  0
  4  5  2  0  0  0
 21 22  1  0  0  0
 21 25  1  0  0  0
 22 23  2  0  0  0
 22 24  1  0  0  0
 24 27  1  0  0  0
 24 26  1  0  0  0
 27 28  1  0  0  0
 27 32  2  0  0  0
 28 29  2  0  0  0
 29 34  1  0  0  0
 29 30  1  0  0  0
 34 35  1  0  0  0
 34 36  1  0  0  0
 34 37  1  0  0  0
 30 31  2  0  0  0
 31 32  1  0  0  0
 32 33  1  0  0  0
  5  6  1  0  0  0
 12 13  1  0  0  0
 13 14  1  0  0  0
 13 18  2  0  0  0
 14 15  2  0  0  0
 15 16  1  0  0  0
 16 17  2  0  0  0
 17 18  1  0  0  0
M  END
> <minimizedAffinity>
-8.04933

$$$$
