CHEMBL1807392


 40 44  0  0  0  0  0  0  0  0999 V2000
  -24.7545   -1.1165  -11.8015 C   0  0  0  0  0  0  0  0  0  0  0  0
  -23.8075   -0.1258  -11.8727 C   0  0  0  0  0  0  0  0  0  0  0  0
  -23.4575   -0.0074  -13.2434 C   0  0  0  0  0  0  0  0  0  0  0  0
  -24.1405   -0.8992  -13.9791 N   0  0  0  0  0  0  0  0  0  0  0  0
  -24.9078   -1.5501  -13.0911 N   0  0  0  0  0  0  0  0  0  0  0  0
  -25.5292   -2.2672  -13.4463 H   0  0  0  0  0  0  0  0  0  0  0  0
  -22.4772    0.9084  -13.8266 C   0  0  0  0  0  0  0  0  0  0  0  0
  -22.6605    2.2988  -13.7480 C   0  0  0  0  0  0  0  0  0  0  0  0
  -21.6924    3.1726  -14.2461 C   0  0  0  0  0  0  0  0  0  0  0  0
  -20.5314    2.6637  -14.8229 C   0  0  0  0  0  0  0  0  0  0  0  0
  -20.3560    1.2852  -14.9344 C   0  0  0  0  0  0  0  0  0  0  0  0
  -21.3225    0.4085  -14.4436 C   0  0  0  0  0  0  0  0  0  0  0  0
  -19.1586    0.7830  -15.5099 N   0  0  0  0  0  0  0  0  0  0  0  0
  -19.2155   -0.1068  -16.0016 H   0  0  0  0  0  0  0  0  0  0  0  0
  -17.7108    0.9424  -14.6499 S   0  0  0  0  0  0  0  0  0  0  0  0
  -18.0271    1.7254  -13.4735 O   0  0  0  0  0  0  0  0  0  0  0  0
  -17.0661   -0.3488  -14.5432 O   0  0  0  0  0  0  0  0  0  0  0  0
  -16.7121    1.9717  -15.7093 C   0  0  0  0  0  0  0  0  0  0  0  0
  -17.0257    3.3308  -15.8382 C   0  0  0  0  0  0  0  0  0  0  0  0
  -16.2108    4.1531  -16.6204 C   0  0  0  0  0  0  0  0  0  0  0  0
  -15.0955    3.6196  -17.2666 C   0  0  0  0  0  0  0  0  0  0  0  0
  -14.7818    2.2660  -17.1268 C   0  0  0  0  0  0  0  0  0  0  0  0
  -15.5849    1.4387  -16.3399 C   0  0  0  0  0  0  0  0  0  0  0  0
  -26.8483   -1.5572  -10.5415 C   0  0  0  0  0  0  0  0  0  0  0  0
  -27.5532   -1.0900  -11.4217 O   0  0  0  0  0  0  0  0  0  0  0  0
  -25.4149   -1.6118  -10.6814 N   0  0  0  0  0  0  0  0  0  0  0  0
  -24.8545   -2.0102   -9.9417 H   0  0  0  0  0  0  0  0  0  0  0  0
  -28.5700   -3.2058   -6.9473 C   0  0  0  0  0  0  0  0  0  0  0  0
  -28.2240   -1.8461   -7.0230 C   0  0  0  0  0  0  0  0  0  0  0  0
  -27.6654   -1.2786   -8.1731 C   0  0  0  0  0  0  0  0  0  0  0  0
  -27.4412   -2.0801   -9.2902 C   0  0  0  0  0  0  0  0  0  0  0  0
  -27.7608   -3.4411   -9.2359 C   0  0  0  0  0  0  0  0  0  0  0  0
  -28.3247   -3.9895   -8.0793 C   0  0  0  0  0  0  0  0  0  0  0  0
  -32.0309   -4.8614   -2.9045 C   0  0  0  0  0  0  0  0  0  0  0  0
  -30.7379   -4.6092   -3.5373 N   0  0  0  0  0  0  0  0  0  0  0  0
  -30.5950   -5.4179   -4.7706 C   0  0  0  0  0  0  0  0  0  0  0  0
  -29.2702   -5.1386   -5.5247 C   0  0  0  0  0  0  0  0  0  0  0  0
  -29.1810   -3.6975   -5.8141 N   0  0  0  0  0  0  0  0  0  0  0  0
  -29.2691   -2.8644   -4.5991 C   0  0  0  0  0  0  0  0  0  0  0  0
  -30.5945   -3.1725   -3.8666 C   0  0  0  0  0  0  0  0  0  0  0  0
 34 35  1  0  0  0
 35 36  1  0  0  0
 35 40  1  0  0  0
 36 37  1  0  0  0
 37 38  1  0  0  0
 38 28  1  0  0  0
 38 39  1  0  0  0
 28 29  1  0  0  0
 28 33  2  0  0  0
 29 30  2  0  0  0
 30 31  1  0  0  0
 31 24  1  0  0  0
 31 32  2  0  0  0
 24 25  2  0  0  0
 24 26  1  0  0  0
 26  1  1  0  0  0
 26 27  1  0  0  0
  1  2  2  0  0  0
  1  5  1  0  0  0
  2  3  1  0  0  0
  3  7  1  0  0  0
  3  4  2  0  0  0
  7  8  1  0  0  0
  7 12  2  0  0  0
  8  9  2  0  0  0
  9 10  1  0  0  0
 10 11  2  0  0  0
 11 13  1  0  0  0
 11 12  1  0  0  0
 13 15  1  0  0  0
 13 14  1  0  0  0
 15 16  2  0  0  0
 15 17  2  0  0  0
 15 18  1  0  0  0
 18 19  1  0  0  0
 18 23  2  0  0  0
 19 20  2  0  0  0
 20 21  1  0  0  0
 21 22  2  0  0  0
 22 23  1  0  0  0
  4  5  1  0  0  0
  5  6  1  0  0  0
 32 33  1  0  0  0
 39 40  1  0  0  0
M  END
> <minimizedAffinity>
-11.16341

$$$$
