CHEMBL3943862


 34 37  0  0  0  0  0  0  0  0999 V2000
  -18.5211    0.7578  -15.4088 O   0  0  0  0  0  0  0  0  0  0  0  0
  -17.2653    1.3324  -15.3816 C   0  0  0  0  0  0  0  0  0  0  0  0
  -16.9779    2.6050  -15.8844 C   0  0  0  0  0  0  0  0  0  0  0  0
  -15.6739    3.0555  -15.8824 C   0  0  0  0  0  0  0  0  0  0  0  0
  -14.6329    2.3922  -15.3574 N   0  0  0  0  0  0  0  0  0  0  0  0
  -14.9252    1.1922  -14.7906 C   0  0  0  0  0  0  0  0  0  0  0  0
  -13.9744    0.3549  -14.1496 C   0  0  0  0  0  0  0  0  0  0  0  0
  -14.5250   -0.8057  -13.6477 C   0  0  0  0  0  0  0  0  0  0  0  0
  -16.2023   -0.8862  -13.9744 S   0  0  0  0  0  0  0  0  0  0  0  0
  -16.2035    0.6385  -14.7788 C   0  0  0  0  0  0  0  0  0  0  0  0
  -13.8828   -1.8413  -12.8616 C   0  0  0  0  0  0  0  0  0  0  0  0
  -12.8041   -2.3720  -13.0627 O   0  0  0  0  0  0  0  0  0  0  0  0
  -14.7651   -2.2428  -11.8986 O   0  0  0  0  0  0  0  0  0  0  0  0
  -14.9368   -3.6577  -11.7975 C   0  0  0  0  0  0  0  0  0  0  0  0
  -16.3724   -4.0374  -11.4871 C   0  0  0  0  0  0  0  0  0  0  0  0
  -16.7446   -5.4015  -12.0522 C   0  0  0  0  0  0  0  0  0  0  0  0
  -17.1194   -5.2744  -13.4179 O   0  0  0  0  0  0  0  0  0  0  0  0
  -17.9009   -4.6980  -13.4614 H   0  0  0  0  0  0  0  0  0  0  0  0
  -21.9031    1.4405  -14.1883 C   0  0  0  0  0  0  0  0  0  0  0  0
  -21.8357    2.8203  -13.9904 C   0  0  0  0  0  0  0  0  0  0  0  0
  -20.7046    3.5457  -14.3592 C   0  0  0  0  0  0  0  0  0  0  0  0
  -19.6135    2.8893  -14.9114 C   0  0  0  0  0  0  0  0  0  0  0  0
  -19.6089    1.4936  -14.9911 C   0  0  0  0  0  0  0  0  0  0  0  0
  -20.7643    0.7723  -14.6668 C   0  0  0  0  0  0  0  0  0  0  0  0
  -23.2513   -0.1866  -12.8487 C   0  0  0  0  0  0  0  0  0  0  0  0
  -22.4245   -0.4124  -11.9704 O   0  0  0  0  0  0  0  0  0  0  0  0
  -23.0633    0.6873  -13.9160 N   0  0  0  0  0  0  0  0  0  0  0  0
  -23.8891    0.8635  -14.4783 H   0  0  0  0  0  0  0  0  0  0  0  0
  -25.1537   -1.2429  -15.3147 C   0  0  0  0  0  0  0  0  0  0  0  0
  -25.3981   -1.2618  -13.8477 C   0  0  0  0  0  0  0  0  0  0  0  0
  -26.5563   -1.7781  -13.2015 C   0  0  0  0  0  0  0  0  0  0  0  0
  -26.3654   -1.6054  -11.8537 C   0  0  0  0  0  0  0  0  0  0  0  0
  -25.1675   -1.0200  -11.6138 O   0  0  0  0  0  0  0  0  0  0  0  0
  -24.5663   -0.8043  -12.8299 C   0  0  0  0  0  0  0  0  0  0  0  0
 29 30  1  0  0  0
 30 31  1  0  0  0
 30 34  2  0  0  0
 31 32  2  0  0  0
 32 33  1  0  0  0
 33 34  1  0  0  0
 34 25  1  0  0  0
 25 26  2  0  0  0
 25 27  1  0  0  0
 27 19  1  0  0  0
 27 28  1  0  0  0
 19 20  1  0  0  0
 19 24  2  0  0  0
 20 21  2  0  0  0
 21 22  1  0  0  0
 22 23  2  0  0  0
 23  1  1  0  0  0
 23 24  1  0  0  0
  1  2  1  0  0  0
  2  3  1  0  0  0
  2 10  2  0  0  0
  3  4  2  0  0  0
  4  5  1  0  0  0
  5  6  2  0  0  0
  6  7  1  0  0  0
  6 10  1  0  0  0
  7  8  2  0  0  0
  8 11  1  0  0  0
  8  9  1  0  0  0
 11 12  2  0  0  0
 11 13  1  0  0  0
 13 14  1  0  0  0
 14 15  1  0  0  0
 15 16  1  0  0  0
 16 17  1  0  0  0
 17 18  1  0  0  0
  9 10  1  0  0  0
M  END
> <minimizedAffinity>
-9.12976

$$$$
