CHEMBL3297998


 24 26  0  0  0  0  0  0  0  0999 V2000
  -14.7283   -5.4881  -14.3683 N   0  0  0  0  0  0  0  0  0  0  0  0
  -14.1820   -6.5882  -15.0888 C   0  0  0  0  0  0  0  0  0  0  0  0
  -14.2324   -6.5893  -16.4521 N   0  0  0  0  0  0  0  0  0  0  0  0
  -13.7060   -7.5999  -17.1743 C   0  0  0  0  0  0  0  0  0  0  0  0
  -13.7877   -7.4681  -18.6662 C   0  0  0  0  0  0  0  0  0  0  0  0
  -13.1083   -8.6968  -16.6869 N   0  0  0  0  0  0  0  0  0  0  0  0
  -13.0555   -8.6827  -15.3469 C   0  0  0  0  0  0  0  0  0  0  0  0
  -12.4853   -9.6922  -14.6153 O   0  0  0  0  0  0  0  0  0  0  0  0
  -12.5742   -9.3384  -13.3019 C   0  0  0  0  0  0  0  0  0  0  0  0
  -12.0559  -10.2589  -12.2813 C   0  0  0  0  0  0  0  0  0  0  0  0
  -13.1862   -8.1121  -13.1890 C   0  0  0  0  0  0  0  0  0  0  0  0
  -13.5387   -7.6944  -14.4988 C   0  0  0  0  0  0  0  0  0  0  0  0
  -13.9210   -4.4158  -13.9163 C   0  0  0  0  0  0  0  0  0  0  0  0
  -13.9353   -3.1503  -14.5237 C   0  0  0  0  0  0  0  0  0  0  0  0
  -13.1472   -2.0901  -14.0501 C   0  0  0  0  0  0  0  0  0  0  0  0
  -12.3272   -2.2652  -12.9403 C   0  0  0  0  0  0  0  0  0  0  0  0
  -12.3140   -3.5029  -12.3063 C   0  0  0  0  0  0  0  0  0  0  0  0
  -13.0914   -4.5600  -12.7926 C   0  0  0  0  0  0  0  0  0  0  0  0
  -11.5077   -1.3233  -12.3858 O   0  0  0  0  0  0  0  0  0  0  0  0
  -11.0297   -0.3049  -13.2546 C   0  0  0  0  0  0  0  0  0  0  0  0
  -15.9821   -5.7894  -13.6508 C   0  0  0  0  0  0  0  0  0  0  0  0
  -16.6715   -4.5869  -13.0087 C   0  0  0  0  0  0  0  0  0  0  0  0
  -16.0498   -3.2006  -11.0261 C   0  0  0  0  0  0  0  0  0  0  0  0
  -16.5383   -4.5633  -11.4883 C   0  0  0  0  0  0  0  0  0  0  0  0
 23 24  1  0  0  0
 24 22  1  0  0  0
 22 21  1  0  0  0
 21  1  1  0  0  0
  1 13  1  0  0  0
  1  2  1  0  0  0
 13 14  1  0  0  0
 13 18  2  0  0  0
 14 15  2  0  0  0
 15 16  1  0  0  0
 16 19  1  0  0  0
 16 17  2  0  0  0
 19 20  1  0  0  0
 17 18  1  0  0  0
  2  3  1  0  0  0
  2 12  2  0  0  0
  3  4  2  0  0  0
  4  5  1  0  0  0
  4  6  1  0  0  0
  6  7  2  0  0  0
  7  8  1  0  0  0
  7 12  1  0  0  0
  8  9  1  0  0  0
  9 10  1  0  0  0
  9 11  2  0  0  0
 11 12  1  0  0  0
M  END
> <minimizedAffinity>
-6.34152

$$$$
