CHEMBL231371


 38 43  0  0  0  0  0  0  0  0999 V2000
  -27.7796   -7.8742   -3.8526 C   0  0  0  0  0  0  0  0  0  0  0  0
  -27.5862   -6.8487   -4.6538 N   0  0  0  0  0  0  0  0  0  0  0  0
  -28.7339   -6.1038   -4.6103 C   0  0  0  0  0  0  0  0  0  0  0  0
  -29.0544   -4.9127   -5.2749 C   0  0  0  0  0  0  0  0  0  0  0  0
  -30.3191   -4.3545   -5.0729 C   0  0  0  0  0  0  0  0  0  0  0  0
  -31.2565   -4.9950   -4.2488 C   0  0  0  0  0  0  0  0  0  0  0  0
  -30.9369   -6.1660   -3.5476 C   0  0  0  0  0  0  0  0  0  0  0  0
  -29.6659   -6.6914   -3.7652 C   0  0  0  0  0  0  0  0  0  0  0  0
  -29.0290   -7.8074   -3.2879 N   0  0  0  0  0  0  0  0  0  0  0  0
  -29.4021   -8.4561   -2.6141 H   0  0  0  0  0  0  0  0  0  0  0  0
  -26.9568   -8.9006   -3.5354 N   0  0  0  0  0  0  0  0  0  0  0  0
  -26.6046   -8.9857   -2.5893 H   0  0  0  0  0  0  0  0  0  0  0  0
  -25.7914  -10.6625   -6.6558 C   0  0  0  0  0  0  0  0  0  0  0  0
  -26.6176  -10.0300   -5.7078 C   0  0  0  0  0  0  0  0  0  0  0  0
  -26.1570   -9.6175   -4.4534 C   0  0  0  0  0  0  0  0  0  0  0  0
  -24.8503   -9.9678   -4.1007 C   0  0  0  0  0  0  0  0  0  0  0  0
  -23.9939  -10.5570   -5.0372 C   0  0  0  0  0  0  0  0  0  0  0  0
  -24.4503  -10.8645   -6.3234 C   0  0  0  0  0  0  0  0  0  0  0  0
  -23.2916  -11.4249   -7.4728 Cl  0  0  0  0  0  0  0  0  0  0  0  0
  -26.4235  -11.0805   -7.9668 C   0  0  0  0  0  0  0  0  0  0  0  0
  -28.9525  -10.2824  -11.9530 C   0  0  0  0  0  0  0  0  0  0  0  0
  -29.0743  -10.7510  -10.5758 N   0  0  0  0  0  0  0  0  0  0  0  0
  -28.2263  -11.9320  -10.3406 C   0  0  0  0  0  0  0  0  0  0  0  0
  -28.2616  -12.3915   -8.8612 C   0  0  0  0  0  0  0  0  0  0  0  0
  -27.8728  -11.3484   -7.8839 N   0  0  0  0  0  0  0  0  0  0  0  0
  -28.7239  -10.1631   -8.1517 C   0  0  0  0  0  0  0  0  0  0  0  0
  -28.7371   -9.6749   -9.6223 C   0  0  0  0  0  0  0  0  0  0  0  0
  -30.5875   -3.2112   -5.8019 O   0  0  0  0  0  0  0  0  0  0  0  0
  -29.5490   -2.5979   -6.4889 C   0  0  0  0  0  0  0  0  0  0  0  0
  -29.0545   -3.1574   -7.6180 N   0  0  0  0  0  0  0  0  0  0  0  0
  -28.0232   -2.5446   -8.2263 C   0  0  0  0  0  0  0  0  0  0  0  0
  -27.4100   -1.3999   -7.8577 N   0  0  0  0  0  0  0  0  0  0  0  0
  -27.9712   -0.8713   -6.7653 C   0  0  0  0  0  0  0  0  0  0  0  0
  -27.5663    0.2893   -6.1662 N   0  0  0  0  0  0  0  0  0  0  0  0
  -28.3696    0.5538   -5.0834 C   0  0  0  0  0  0  0  0  0  0  0  0
  -29.2933   -0.4640   -4.9834 C   0  0  0  0  0  0  0  0  0  0  0  0
  -29.0379   -1.3810   -6.0409 C   0  0  0  0  0  0  0  0  0  0  0  0
  -26.7879    0.8478   -6.4900 H   0  0  0  0  0  0  0  0  0  0  0  0
 21 22  1  0  0  0
 22 23  1  0  0  0
 22 27  1  0  0  0
 23 24  1  0  0  0
 24 25  1  0  0  0
 25 20  1  0  0  0
 25 26  1  0  0  0
 20 13  1  0  0  0
 13 14  1  0  0  0
 13 18  2  0  0  0
 14 15  2  0  0  0
 15 11  1  0  0  0
 15 16  1  0  0  0
 11  1  1  0  0  0
 11 12  1  0  0  0
  1  2  2  0  0  0
  1  9  1  0  0  0
  2  3  1  0  0  0
  3  4  1  0  0  0
  3  8  2  0  0  0
  4  5  2  0  0  0
  5 28  1  0  0  0
  5  6  1  0  0  0
 28 29  1  0  0  0
 29 30  1  0  0  0
 29 37  2  0  0  0
 30 31  2  0  0  0
 31 32  1  0  0  0
 32 33  2  0  0  0
 33 34  1  0  0  0
 33 37  1  0  0  0
 34 35  1  0  0  0
 34 38  1  0  0  0
 35 36  2  0  0  0
 36 37  1  0  0  0
  6  7  2  0  0  0
  7  8  1  0  0  0
  8  9  1  0  0  0
  9 10  1  0  0  0
 16 17  2  0  0  0
 17 18  1  0  0  0
 18 19  1  0  0  0
 26 27  1  0  0  0
M  END
> <minimizedAffinity>
-9.33130

$$$$
