CHEMBL3953771


 40 44  0  0  0  0  0  0  0  0999 V2000
  -13.9386    0.4232  -14.3866 N   0  0  0  0  0  0  0  0  0  0  0  0
  -13.5256   -0.8526  -14.8879 C   0  0  0  0  0  0  0  0  0  0  0  0
  -12.9027   -0.9892  -16.1356 C   0  0  0  0  0  0  0  0  0  0  0  0
  -12.5572   -2.2363  -16.6517 C   0  0  0  0  0  0  0  0  0  0  0  0
  -12.7560   -3.3938  -15.9343 C   0  0  0  0  0  0  0  0  0  0  0  0
  -12.3880   -4.5366  -16.5279 N   0  0  0  0  0  0  0  0  0  0  0  0
  -12.5582   -5.6602  -15.8059 C   0  0  0  0  0  0  0  0  0  0  0  0
  -13.0696   -5.6641  -14.5161 C   0  0  0  0  0  0  0  0  0  0  0  0
  -13.4557   -4.5007  -13.9136 N   0  0  0  0  0  0  0  0  0  0  0  0
  -13.3140   -3.3403  -14.6354 C   0  0  0  0  0  0  0  0  0  0  0  0
  -13.7102   -2.0628  -14.1610 C   0  0  0  0  0  0  0  0  0  0  0  0
  -13.2089   -6.9393  -13.8246 C   0  0  0  0  0  0  0  0  0  0  0  0
  -14.3928   -7.6382  -13.4678 C   0  0  0  0  0  0  0  0  0  0  0  0
  -14.1545   -8.8202  -12.8991 N   0  0  0  0  0  0  0  0  0  0  0  0
  -12.8110   -8.8900  -12.8774 N   0  0  0  0  0  0  0  0  0  0  0  0
  -12.1784  -10.0585  -12.3131 C   0  0  0  0  0  0  0  0  0  0  0  0
  -12.1995   -7.7947  -13.4305 C   0  0  0  0  0  0  0  0  0  0  0  0
  -13.6824    1.7278  -14.9593 C   0  0  0  0  0  0  0  0  0  0  0  0
  -12.8522    2.7023  -14.3092 C   0  0  0  0  0  0  0  0  0  0  0  0
  -11.7732    2.2366  -13.0214 Cl  0  0  0  0  0  0  0  0  0  0  0  0
  -12.7191    4.0133  -14.8162 C   0  0  0  0  0  0  0  0  0  0  0  0
  -13.2415    4.3206  -16.0717 C   0  0  0  0  0  0  0  0  0  0  0  0
  -13.9643    3.3752  -16.7947 C   0  0  0  0  0  0  0  0  0  0  0  0
  -14.2598    2.1240  -16.2025 C   0  0  0  0  0  0  0  0  0  0  0  0
  -15.4528    1.1403  -17.0192 Cl  0  0  0  0  0  0  0  0  0  0  0  0
  -11.9676    5.0315  -14.2794 O   0  0  0  0  0  0  0  0  0  0  0  0
  -11.9021    6.2461  -15.0274 C   0  0  0  0  0  0  0  0  0  0  0  0
  -14.4164    3.5826  -18.0752 O   0  0  0  0  0  0  0  0  0  0  0  0
  -13.4832    3.4648  -19.1423 C   0  0  0  0  0  0  0  0  0  0  0  0
  -14.9353    0.4254  -13.2717 C   0  0  0  0  0  0  0  0  0  0  0  0
  -17.3355    1.3554  -13.9977 C   0  0  0  0  0  0  0  0  0  0  0  0
  -16.2646    0.9031  -13.6688 C   0  0  0  0  0  0  0  0  0  0  0  0
  -20.8144    1.4787  -14.6648 C   0  0  0  0  0  0  0  0  0  0  0  0
  -21.0096    2.7483  -15.1617 C   0  0  0  0  0  0  0  0  0  0  0  0
  -19.8905    3.5440  -15.2059 C   0  0  0  0  0  0  0  0  0  0  0  0
  -18.6666    3.1321  -14.8189 N   0  0  0  0  0  0  0  0  0  0  0  0
  -18.6058    1.8662  -14.3723 C   0  0  0  0  0  0  0  0  0  0  0  0
  -19.6259    1.0092  -14.2615 N   0  0  0  0  0  0  0  0  0  0  0  0
  -22.3341    0.3652  -13.2837 C   0  0  0  0  0  0  0  0  0  0  0  0
  -21.9228    0.6574  -14.6179 O   0  0  0  0  0  0  0  0  0  0  0  0
 39 40  1  0  0  0
 40 33  1  0  0  0
 33 34  1  0  0  0
 33 38  2  0  0  0
 34 35  2  0  0  0
 35 36  1  0  0  0
 36 37  2  0  0  0
 37 31  1  0  0  0
 37 38  1  0  0  0
 31 32  3  0  0  0
 32 30  1  0  0  0
 30  1  1  0  0  0
  1  2  1  0  0  0
  1 18  1  0  0  0
  2  3  1  0  0  0
  2 11  2  0  0  0
  3  4  2  0  0  0
  4  5  1  0  0  0
  5  6  1  0  0  0
  5 10  2  0  0  0
  6  7  2  0  0  0
  7  8  1  0  0  0
  8 12  1  0  0  0
  8  9  2  0  0  0
 12 13  1  0  0  0
 12 17  2  0  0  0
 13 14  2  0  0  0
 14 15  1  0  0  0
 15 16  1  0  0  0
 15 17  1  0  0  0
  9 10  1  0  0  0
 10 11  1  0  0  0
 18 19  1  0  0  0
 18 24  2  0  0  0
 19 20  1  0  0  0
 19 21  2  0  0  0
 21 26  1  0  0  0
 21 22  1  0  0  0
 26 27  1  0  0  0
 22 23  2  0  0  0
 23 28  1  0  0  0
 23 24  1  0  0  0
 28 29  1  0  0  0
 24 25  1  0  0  0
M  END
> <minimizedAffinity>
-7.56773

$$$$
