CHEMBL3891966


 39 42  0  0  0  0  0  0  0  0999 V2000
  -27.8669   -2.0541   -9.0249 N   0  0  0  0  0  0  0  0  0  0  0  0
  -26.9669   -1.8056  -10.1291 C   0  0  0  0  0  0  0  0  0  0  0  0
  -25.7131   -1.3611   -9.7760 C   0  0  0  0  0  0  0  0  0  0  0  0
  -24.8770   -1.0720  -10.7520 C   0  0  0  0  0  0  0  0  0  0  0  0
  -25.2564   -1.0582  -12.0108 C   0  0  0  0  0  0  0  0  0  0  0  0
  -24.6274    0.0229  -12.3347 N   0  0  0  0  0  0  0  0  0  0  0  0
  -23.4128   -0.1761  -12.7923 C   0  0  0  0  0  0  0  0  0  0  0  0
  -23.4353   -0.3692  -14.0661 C   0  0  0  0  0  0  0  0  0  0  0  0
  -24.9921   -0.9621  -14.2865 N   0  0  0  0  0  0  0  0  0  0  0  0
  -26.0739   -1.4380  -12.9369 C   0  0  0  0  0  0  0  0  0  0  0  0
  -27.1964   -1.8887  -11.6519 C   0  0  0  0  0  0  0  0  0  0  0  0
  -21.9615    0.6541  -14.4473 C   0  0  0  0  0  0  0  0  0  0  0  0
  -21.6473    2.2640  -14.2553 C   0  0  0  0  0  0  0  0  0  0  0  0
  -20.4113    2.7179  -14.6078 N   0  0  0  0  0  0  0  0  0  0  0  0
  -19.7623    1.6200  -15.0371 N   0  0  0  0  0  0  0  0  0  0  0  0
  -18.2966    1.7033  -15.3860 C   0  0  0  0  0  0  0  0  0  0  0  0
  -20.6805    0.4641  -15.0013 C   0  0  0  0  0  0  0  0  0  0  0  0
  -28.8328    0.5538   -6.4545 C   0  0  0  0  0  0  0  0  0  0  0  0
  -28.3635   -0.0270   -5.2995 C   0  0  0  0  0  0  0  0  0  0  0  0
  -27.7808   -1.2935   -5.3601 C   0  0  0  0  0  0  0  0  0  0  0  0
  -27.5905   -1.9638   -6.5871 C   0  0  0  0  0  0  0  0  0  0  0  0
  -27.9741   -1.3750   -7.7808 C   0  0  0  0  0  0  0  0  0  0  0  0
  -28.4833   -0.0546   -7.6381 C   0  0  0  0  0  0  0  0  0  0  0  0
  -30.8602    1.7524   -6.5618 C   0  0  0  0  0  0  0  0  0  0  0  0
  -29.4410    1.7648   -6.5727 O   0  0  0  0  0  0  0  0  0  0  0  0
  -27.4752   -2.0243   -4.2430 O   0  0  0  0  0  0  0  0  0  0  0  0
  -27.9557   -3.3624   -4.2660 C   0  0  0  0  0  0  0  0  0  0  0  0
  -28.4851   -3.4498   -9.1438 C   0  0  0  0  0  0  0  0  0  0  0  0
  -29.1149   -3.9987   -7.8534 C   0  0  0  0  0  0  0  0  0  0  0  0
  -30.5459   -4.0006   -7.8713 O   0  0  0  0  0  0  0  0  0  0  0  0
  -30.8633   -4.2309   -8.7647 H   0  0  0  0  0  0  0  0  0  0  0  0
  -28.7800   -5.4407   -7.5493 C   0  0  0  0  0  0  0  0  0  0  0  0
  -29.9302   -6.1034   -6.9912 N   0  0  0  0  0  0  0  0  0  0  0  0
  -30.1531   -6.9546   -7.5168 H   0  0  0  0  0  0  0  0  0  0  0  0
  -29.6548   -6.4351   -5.5941 C   0  0  0  0  0  0  0  0  0  0  0  0
  -30.7543   -5.9516   -4.6592 C   0  0  0  0  0  0  0  0  0  0  0  0
  -30.9635   -4.6200   -4.7919 F   0  0  0  0  0  0  0  0  0  0  0  0
  -31.9165   -6.5773   -4.9394 F   0  0  0  0  0  0  0  0  0  0  0  0
  -30.4311   -6.1994   -3.3742 F   0  0  0  0  0  0  0  0  0  0  0  0
 24 25  1  0  0  0
 25 18  1  0  0  0
 18 19  1  0  0  0
 18 23  2  0  0  0
 19 20  2  0  0  0
 20 26  1  0  0  0
 20 21  1  0  0  0
 26 27  1  0  0  0
 21 22  2  0  0  0
 22  1  1  0  0  0
 22 23  1  0  0  0
  1 28  1  0  0  0
  1  2  1  0  0  0
 28 29  1  0  0  0
 29 30  1  0  0  0
 29 32  1  0  0  0
 30 31  1  0  0  0
 32 33  1  0  0  0
 33 35  1  0  0  0
 33 34  1  0  0  0
 35 36  1  0  0  0
 36 37  1  0  0  0
 36 38  1  0  0  0
 36 39  1  0  0  0
  2  3  1  0  0  0
  2 11  2  0  0  0
  3  4  2  0  0  0
  4  5  1  0  0  0
  5  6  1  0  0  0
  5 10  2  0  0  0
  6  7  2  0  0  0
  7  8  1  0  0  0
  8 12  1  0  0  0
  8  9  2  0  0  0
 12 13  1  0  0  0
 12 17  2  0  0  0
 13 14  2  0  0  0
 14 15  1  0  0  0
 15 16  1  0  0  0
 15 17  1  0  0  0
  9 10  1  0  0  0
 10 11  1  0  0  0
M  END
> <minimizedAffinity>
-8.26079

$$$$
