CHEMBL374752


 33 36  0  0  0  0  0  0  0  0999 V2000
  -21.3354    1.5949  -14.6172 C   0  0  0  0  0  0  0  0  0  0  0  0
  -21.2936    0.2016  -14.5363 C   0  0  0  0  0  0  0  0  0  0  0  0
  -22.3137   -0.5100  -13.8929 C   0  0  0  0  0  0  0  0  0  0  0  0
  -23.3914    0.1516  -13.2849 C   0  0  0  0  0  0  0  0  0  0  0  0
  -23.3371    1.5600  -13.2735 C   0  0  0  0  0  0  0  0  0  0  0  0
  -22.3356    2.2789  -13.9402 C   0  0  0  0  0  0  0  0  0  0  0  0
  -24.5078   -0.5905  -12.6557 C   0  0  0  0  0  0  0  0  0  0  0  0
  -24.5541   -0.8168  -11.2542 C   0  0  0  0  0  0  0  0  0  0  0  0
  -25.6565   -1.4009  -10.6265 C   0  0  0  0  0  0  0  0  0  0  0  0
  -26.7781   -1.7381  -11.3679 C   0  0  0  0  0  0  0  0  0  0  0  0
  -27.8659   -2.2374  -10.7690 F   0  0  0  0  0  0  0  0  0  0  0  0
  -26.7323   -1.5639  -12.7442 C   0  0  0  0  0  0  0  0  0  0  0  0
  -27.6793   -1.7882  -13.7005 N   0  0  0  0  0  0  0  0  0  0  0  0
  -27.2319   -1.6439  -14.9543 N   0  0  0  0  0  0  0  0  0  0  0  0
  -25.9728   -1.2461  -14.7951 C   0  0  0  0  0  0  0  0  0  0  0  0
  -25.1513   -1.0866  -15.8449 N   0  0  0  0  0  0  0  0  0  0  0  0
  -25.6159   -1.0700  -13.4184 C   0  0  0  0  0  0  0  0  0  0  0  0
  -28.6446   -2.0638  -13.5582 H   0  0  0  0  0  0  0  0  0  0  0  0
  -25.4761   -1.4726  -16.7243 H   0  0  0  0  0  0  0  0  0  0  0  0
  -24.1507   -1.1951  -15.7094 H   0  0  0  0  0  0  0  0  0  0  0  0
  -18.3220    3.0468  -16.0253 N   0  0  0  0  0  0  0  0  0  0  0  0
  -19.0654    2.3292  -15.1074 C   0  0  0  0  0  0  0  0  0  0  0  0
  -18.6061    1.7285  -14.1452 O   0  0  0  0  0  0  0  0  0  0  0  0
  -20.4207    2.3222  -15.4228 N   0  0  0  0  0  0  0  0  0  0  0  0
  -18.8248    3.6985  -16.6114 H   0  0  0  0  0  0  0  0  0  0  0  0
  -20.6265    2.3539  -16.4123 H   0  0  0  0  0  0  0  0  0  0  0  0
  -14.0170    0.6358  -16.5103 C   0  0  0  0  0  0  0  0  0  0  0  0
  -14.7874    1.9087  -16.3041 C   0  0  0  0  0  0  0  0  0  0  0  0
  -14.0912    3.1181  -16.1612 C   0  0  0  0  0  0  0  0  0  0  0  0
  -14.7935    4.3018  -15.9670 C   0  0  0  0  0  0  0  0  0  0  0  0
  -16.1831    4.2895  -15.9120 C   0  0  0  0  0  0  0  0  0  0  0  0
  -16.9108    3.1001  -16.0697 C   0  0  0  0  0  0  0  0  0  0  0  0
  -16.1964    1.9012  -16.2475 C   0  0  0  0  0  0  0  0  0  0  0  0
 27 28  1  0  0  0
 28 29  1  0  0  0
 28 33  2  0  0  0
 29 30  2  0  0  0
 30 31  1  0  0  0
 31 32  2  0  0  0
 32 21  1  0  0  0
 32 33  1  0  0  0
 21 22  1  0  0  0
 21 25  1  0  0  0
 22 23  2  0  0  0
 22 24  1  0  0  0
 24  1  1  0  0  0
 24 26  1  0  0  0
  1  2  1  0  0  0
  1  6  2  0  0  0
  2  3  2  0  0  0
  3  4  1  0  0  0
  4  7  1  0  0  0
  4  5  2  0  0  0
  7  8  1  0  0  0
  7 17  2  0  0  0
  8  9  2  0  0  0
  9 10  1  0  0  0
 10 11  1  0  0  0
 10 12  2  0  0  0
 12 13  1  0  0  0
 12 17  1  0  0  0
 13 14  1  0  0  0
 13 18  1  0  0  0
 14 15  2  0  0  0
 15 16  1  0  0  0
 15 17  1  0  0  0
 16 19  1  0  0  0
 16 20  1  0  0  0
  5  6  1  0  0  0
M  END
> <minimizedAffinity>
-9.73557

$$$$
