CHEMBL3671577


 39 42  0  0  0  0  0  0  0  0999 V2000
  -17.8940    0.9825  -14.8975 C   0  0  0  0  0  0  0  0  0  0  0  0
  -19.1974    0.5066  -14.7431 C   0  0  0  0  0  0  0  0  0  0  0  0
  -20.2771    1.4063  -14.5909 C   0  0  0  0  0  0  0  0  0  0  0  0
  -21.6044    1.0316  -14.3198 C   0  0  0  0  0  0  0  0  0  0  0  0
  -22.5895    1.9407  -14.1933 N   0  0  0  0  0  0  0  0  0  0  0  0
  -22.2466    3.2254  -14.3075 C   0  0  0  0  0  0  0  0  0  0  0  0
  -21.0153    3.6958  -14.5201 N   0  0  0  0  0  0  0  0  0  0  0  0
  -20.0380    2.7892  -14.6464 C   0  0  0  0  0  0  0  0  0  0  0  0
  -18.7398    3.2378  -14.8313 C   0  0  0  0  0  0  0  0  0  0  0  0
  -17.6584    2.3616  -14.9776 C   0  0  0  0  0  0  0  0  0  0  0  0
  -16.0282   -0.1049  -13.8273 C   0  0  0  0  0  0  0  0  0  0  0  0
  -16.0935    0.5419  -12.7935 O   0  0  0  0  0  0  0  0  0  0  0  0
  -16.8513    0.0338  -14.9370 N   0  0  0  0  0  0  0  0  0  0  0  0
  -17.0978   -0.8609  -15.3441 H   0  0  0  0  0  0  0  0  0  0  0  0
  -15.2214   -2.3970  -13.4406 C   0  0  0  0  0  0  0  0  0  0  0  0
  -15.0472   -1.2049  -14.0223 C   0  0  0  0  0  0  0  0  0  0  0  0
  -21.9310   -0.3369  -14.1191 N   0  0  0  0  0  0  0  0  0  0  0  0
  -21.8255   -0.8621  -14.9826 H   0  0  0  0  0  0  0  0  0  0  0  0
  -23.0469   -0.7771  -13.3668 C   0  0  0  0  0  0  0  0  0  0  0  0
  -22.9160   -1.1118  -12.0116 C   0  0  0  0  0  0  0  0  0  0  0  0
  -24.0281   -1.4746  -11.2516 C   0  0  0  0  0  0  0  0  0  0  0  0
  -25.2856   -1.5210  -11.8495 C   0  0  0  0  0  0  0  0  0  0  0  0
  -26.8010   -1.9388  -10.8009 Br  0  0  0  0  0  0  0  0  0  0  0  0
  -25.4324   -1.2485  -13.2071 C   0  0  0  0  0  0  0  0  0  0  0  0
  -24.3129   -0.8914  -13.9533 C   0  0  0  0  0  0  0  0  0  0  0  0
  -24.4605   -0.6174  -15.2601 F   0  0  0  0  0  0  0  0  0  0  0  0
  -16.4561    2.9897  -15.2070 O   0  0  0  0  0  0  0  0  0  0  0  0
  -16.5033    4.0869  -16.1216 C   0  0  0  0  0  0  0  0  0  0  0  0
  -15.0988    4.6275  -16.4035 C   0  0  0  0  0  0  0  0  0  0  0  0
  -14.0983    3.9571  -15.5826 N   0  0  0  0  0  0  0  0  0  0  0  0
  -12.9805    4.6293  -15.1252 C   0  0  0  0  0  0  0  0  0  0  0  0
  -12.8095    5.8300  -15.3255 O   0  0  0  0  0  0  0  0  0  0  0  0
  -14.1839    2.9612  -15.4258 H   0  0  0  0  0  0  0  0  0  0  0  0
  -11.9426    3.7540  -14.4023 C   0  0  0  0  0  0  0  0  0  0  0  0
  -12.2656    2.3254  -14.5168 N   0  0  0  0  0  0  0  0  0  0  0  0
  -12.5170    1.6950  -13.2016 C   0  0  0  0  0  0  0  0  0  0  0  0
  -11.7249    0.4344  -13.2122 C   0  0  0  0  0  0  0  0  0  0  0  0
  -10.9681    0.3652  -14.3069 C   0  0  0  0  0  0  0  0  0  0  0  0
  -11.1719    1.5680  -15.1594 C   0  0  0  0  0  0  0  0  0  0  0  0
 15 16  2  0  0  0
 16 11  1  0  0  0
 11 12  2  0  0  0
 11 13  1  0  0  0
 13  1  1  0  0  0
 13 14  1  0  0  0
  1  2  1  0  0  0
  1 10  2  0  0  0
  2  3  2  0  0  0
  3  4  1  0  0  0
  3  8  1  0  0  0
  4 17  1  0  0  0
  4  5  2  0  0  0
 17 19  1  0  0  0
 17 18  1  0  0  0
 19 20  1  0  0  0
 19 25  2  0  0  0
 20 21  2  0  0  0
 21 22  1  0  0  0
 22 23  1  0  0  0
 22 24  2  0  0  0
 24 25  1  0  0  0
 25 26  1  0  0  0
  5  6  1  0  0  0
  6  7  2  0  0  0
  7  8  1  0  0  0
  8  9  2  0  0  0
  9 10  1  0  0  0
 10 27  1  0  0  0
 27 28  1  0  0  0
 28 29  1  0  0  0
 29 30  1  0  0  0
 30 31  1  0  0  0
 30 33  1  0  0  0
 31 32  2  0  0  0
 31 34  1  0  0  0
 34 35  1  0  0  0
 35 36  1  0  0  0
 35 39  1  0  0  0
 36 37  1  0  0  0
 37 38  2  0  0  0
 38 39  1  0  0  0
M  END
> <minimizedAffinity>
-9.04272

$$$$
