CHEMBL3953833


 38 42  0  0  0  0  0  0  0  0999 V2000
  -16.7818    2.0582  -15.4227 N   0  0  0  0  0  0  0  0  0  0  0  0
  -18.2144    1.9328  -15.4967 C   0  0  0  0  0  0  0  0  0  0  0  0
  -18.8801    3.1251  -15.7779 C   0  0  0  0  0  0  0  0  0  0  0  0
  -20.1556    3.3296  -15.2961 C   0  0  0  0  0  0  0  0  0  0  0  0
  -20.8604    2.3286  -14.6836 C   0  0  0  0  0  0  0  0  0  0  0  0
  -21.9884    2.7491  -14.1095 N   0  0  0  0  0  0  0  0  0  0  0  0
  -22.8206    1.8049  -13.6655 C   0  0  0  0  0  0  0  0  0  0  0  0
  -22.5803    0.4617  -13.8653 C   0  0  0  0  0  0  0  0  0  0  0  0
  -21.3589    0.0216  -14.3300 N   0  0  0  0  0  0  0  0  0  0  0  0
  -20.4133    0.9871  -14.7035 C   0  0  0  0  0  0  0  0  0  0  0  0
  -19.0135    0.8328  -15.0642 C   0  0  0  0  0  0  0  0  0  0  0  0
  -23.7374   -0.4104  -13.6814 C   0  0  0  0  0  0  0  0  0  0  0  0
  -24.5737   -1.0255  -14.6542 C   0  0  0  0  0  0  0  0  0  0  0  0
  -25.7000   -1.5313  -14.1324 N   0  0  0  0  0  0  0  0  0  0  0  0
  -25.5976   -1.2315  -12.8270 N   0  0  0  0  0  0  0  0  0  0  0  0
  -26.4587   -1.8641  -11.8554 C   0  0  0  0  0  0  0  0  0  0  0  0
  -24.5418   -0.4060  -12.5522 C   0  0  0  0  0  0  0  0  0  0  0  0
  -14.1054    3.0085  -17.9110 C   0  0  0  0  0  0  0  0  0  0  0  0
  -13.5143    1.7799  -18.1458 C   0  0  0  0  0  0  0  0  0  0  0  0
  -14.0745    0.6258  -17.5907 C   0  0  0  0  0  0  0  0  0  0  0  0
  -15.1862    0.7118  -16.7313 C   0  0  0  0  0  0  0  0  0  0  0  0
  -15.7461    1.9432  -16.3883 C   0  0  0  0  0  0  0  0  0  0  0  0
  -15.2351    3.0684  -17.0887 C   0  0  0  0  0  0  0  0  0  0  0  0
  -14.6858    5.0628  -18.9521 C   0  0  0  0  0  0  0  0  0  0  0  0
  -13.6769    4.2078  -18.4188 O   0  0  0  0  0  0  0  0  0  0  0  0
  -13.6076   -0.6453  -17.8082 O   0  0  0  0  0  0  0  0  0  0  0  0
  -12.6704   -0.7986  -18.8688 C   0  0  0  0  0  0  0  0  0  0  0  0
  -16.3565    1.9280  -13.9930 C   0  0  0  0  0  0  0  0  0  0  0  0
  -16.1857    0.5243  -13.6282 C   0  0  0  0  0  0  0  0  0  0  0  0
  -16.0351   -0.6173  -13.2492 C   0  0  0  0  0  0  0  0  0  0  0  0
  -15.8933   -1.9246  -12.7277 C   0  0  0  0  0  0  0  0  0  0  0  0
  -16.0578   -2.9303  -13.6034 N   0  0  0  0  0  0  0  0  0  0  0  0
  -15.9609   -4.1668  -13.0862 C   0  0  0  0  0  0  0  0  0  0  0  0
  -15.7280   -4.4094  -11.7520 C   0  0  0  0  0  0  0  0  0  0  0  0
  -15.5693   -3.2930  -10.9603 C   0  0  0  0  0  0  0  0  0  0  0  0
  -15.6381   -2.0326  -11.4159 N   0  0  0  0  0  0  0  0  0  0  0  0
  -15.3379   -3.5406   -9.6212 O   0  0  0  0  0  0  0  0  0  0  0  0
  -13.9557   -3.6260   -9.2899 C   0  0  0  0  0  0  0  0  0  0  0  0
 24 25  1  0  0  0
 25 18  1  0  0  0
 18 19  1  0  0  0
 18 23  2  0  0  0
 19 20  2  0  0  0
 20 26  1  0  0  0
 20 21  1  0  0  0
 26 27  1  0  0  0
 21 22  2  0  0  0
 22  1  1  0  0  0
 22 23  1  0  0  0
  1 28  1  0  0  0
  1  2  1  0  0  0
 28 29  1  0  0  0
 29 30  3  0  0  0
 30 31  1  0  0  0
 31 32  1  0  0  0
 31 36  2  0  0  0
 32 33  2  0  0  0
 33 34  1  0  0  0
 34 35  2  0  0  0
 35 37  1  0  0  0
 35 36  1  0  0  0
 37 38  1  0  0  0
  2  3  1  0  0  0
  2 11  2  0  0  0
  3  4  2  0  0  0
  4  5  1  0  0  0
  5  6  1  0  0  0
  5 10  2  0  0  0
  6  7  2  0  0  0
  7  8  1  0  0  0
  8 12  1  0  0  0
  8  9  2  0  0  0
 12 13  1  0  0  0
 12 17  2  0  0  0
 13 14  2  0  0  0
 14 15  1  0  0  0
 15 16  1  0  0  0
 15 17  1  0  0  0
  9 10  1  0  0  0
 10 11  1  0  0  0
M  END
> <minimizedAffinity>
-9.38428

$$$$
