CHEMBL365448


 35 38  0  0  0  0  0  0  0  0999 V2000
  -21.9523    0.5194  -14.0100 C   0  0  0  0  0  0  0  0  0  0  0  0
  -21.9247    1.9074  -13.8836 C   0  0  0  0  0  0  0  0  0  0  0  0
  -20.8980    2.6795  -14.4170 C   0  0  0  0  0  0  0  0  0  0  0  0
  -19.8828    2.1235  -15.1856 C   0  0  0  0  0  0  0  0  0  0  0  0
  -19.9063    0.7375  -15.3776 C   0  0  0  0  0  0  0  0  0  0  0  0
  -20.9228   -0.0493  -14.7834 C   0  0  0  0  0  0  0  0  0  0  0  0
  -25.0923   -1.7594  -11.9810 C   0  0  0  0  0  0  0  0  0  0  0  0
  -23.9189   -1.3607  -11.3280 C   0  0  0  0  0  0  0  0  0  0  0  0
  -22.9023   -0.6441  -11.9893 C   0  0  0  0  0  0  0  0  0  0  0  0
  -23.0124   -0.2769  -13.3415 C   0  0  0  0  0  0  0  0  0  0  0  0
  -24.1907   -0.6962  -13.9885 C   0  0  0  0  0  0  0  0  0  0  0  0
  -25.2188   -1.4033  -13.3176 C   0  0  0  0  0  0  0  0  0  0  0  0
  -26.3236   -1.5635  -14.2916 C   0  0  0  0  0  0  0  0  0  0  0  0
  -27.4376   -2.0335  -14.1380 O   0  0  0  0  0  0  0  0  0  0  0  0
  -25.9030   -1.0474  -15.4851 N   0  0  0  0  0  0  0  0  0  0  0  0
  -24.6100   -0.4519  -15.4094 C   0  0  0  0  0  0  0  0  0  0  0  0
  -26.5133   -1.0370  -16.2914 H   0  0  0  0  0  0  0  0  0  0  0  0
  -25.9584   -2.4309  -11.1717 O   0  0  0  0  0  0  0  0  0  0  0  0
  -27.0066   -1.6704  -10.5776 C   0  0  0  0  0  0  0  0  0  0  0  0
  -27.5269   -2.3976   -9.3463 C   0  0  0  0  0  0  0  0  0  0  0  0
  -27.9766   -2.0164   -7.0650 C   0  0  0  0  0  0  0  0  0  0  0  0
  -27.2215   -1.6129   -8.1943 O   0  0  0  0  0  0  0  0  0  0  0  0
  -18.8780    2.9188  -15.7928 N   0  0  0  0  0  0  0  0  0  0  0  0
  -17.5228    2.6039  -15.8126 C   0  0  0  0  0  0  0  0  0  0  0  0
  -17.0285    1.5682  -15.3791 O   0  0  0  0  0  0  0  0  0  0  0  0
  -16.7429    3.6171  -16.3480 N   0  0  0  0  0  0  0  0  0  0  0  0
  -19.1736    3.7341  -16.3102 H   0  0  0  0  0  0  0  0  0  0  0  0
  -17.0586    4.5467  -16.1139 H   0  0  0  0  0  0  0  0  0  0  0  0
  -15.3364    3.4394  -16.4224 C   0  0  0  0  0  0  0  0  0  0  0  0
  -14.8175    2.5822  -17.3918 C   0  0  0  0  0  0  0  0  0  0  0  0
  -13.4357    2.4199  -17.5103 C   0  0  0  0  0  0  0  0  0  0  0  0
  -12.5696    3.0876  -16.6418 C   0  0  0  0  0  0  0  0  0  0  0  0
  -13.0728    3.9493  -15.6642 C   0  0  0  0  0  0  0  0  0  0  0  0
  -12.1451    4.6814  -14.7368 C   0  0  0  0  0  0  0  0  0  0  0  0
  -14.4618    4.1257  -15.5648 C   0  0  0  0  0  0  0  0  0  0  0  0
 21 22  1  0  0  0
 22 20  1  0  0  0
 20 19  1  0  0  0
 19 18  1  0  0  0
 18  7  1  0  0  0
  7  8  1  0  0  0
  7 12  2  0  0  0
  8  9  2  0  0  0
  9 10  1  0  0  0
 10  1  1  0  0  0
 10 11  2  0  0  0
  1  2  1  0  0  0
  1  6  2  0  0  0
  2  3  2  0  0  0
  3  4  1  0  0  0
  4 23  1  0  0  0
  4  5  2  0  0  0
 23 24  1  0  0  0
 23 27  1  0  0  0
 24 25  2  0  0  0
 24 26  1  0  0  0
 26 29  1  0  0  0
 26 28  1  0  0  0
 29 30  1  0  0  0
 29 35  2  0  0  0
 30 31  2  0  0  0
 31 32  1  0  0  0
 32 33  2  0  0  0
 33 34  1  0  0  0
 33 35  1  0  0  0
  5  6  1  0  0  0
 11 12  1  0  0  0
 11 16  1  0  0  0
 12 13  1  0  0  0
 13 14  2  0  0  0
 13 15  1  0  0  0
 15 16  1  0  0  0
 15 17  1  0  0  0
M  END
> <minimizedAffinity>
-9.39304

$$$$
