CHEMBL3971758


 31 34  0  0  0  0  0  0  0  0999 V2000
  -27.5973   -2.9409   -8.7663 C   0  0  0  0  0  0  0  0  0  0  0  0
  -27.8955   -1.9285   -7.8552 C   0  0  0  0  0  0  0  0  0  0  0  0
  -28.5740   -2.1888   -6.6589 C   0  0  0  0  0  0  0  0  0  0  0  0
  -29.0918   -3.4513   -6.3976 C   0  0  0  0  0  0  0  0  0  0  0  0
  -28.9716   -4.4387   -7.3678 C   0  0  0  0  0  0  0  0  0  0  0  0
  -28.1540   -4.1976   -8.5147 C   0  0  0  0  0  0  0  0  0  0  0  0
  -29.8968   -5.6157   -7.3497 C   0  0  0  0  0  0  0  0  0  0  0  0
  -31.1505   -5.6121   -6.7354 C   0  0  0  0  0  0  0  0  0  0  0  0
  -30.8653   -6.1198   -5.4245 C   0  0  0  0  0  0  0  0  0  0  0  0
  -31.4440   -5.9144   -4.1637 C   0  0  0  0  0  0  0  0  0  0  0  0
  -30.7583   -6.3692   -3.0329 C   0  0  0  0  0  0  0  0  0  0  0  0
  -29.5678   -7.0897   -3.1503 C   0  0  0  0  0  0  0  0  0  0  0  0
  -29.0138   -7.3746   -4.3975 C   0  0  0  0  0  0  0  0  0  0  0  0
  -29.6611   -6.8258   -5.5080 C   0  0  0  0  0  0  0  0  0  0  0  0
  -29.3627   -6.8309   -6.8625 N   0  0  0  0  0  0  0  0  0  0  0  0
  -28.5951   -7.7910   -7.5423 C   0  0  0  0  0  0  0  0  0  0  0  0
  -29.0768   -8.0449   -8.7972 N   0  0  0  0  0  0  0  0  0  0  0  0
  -27.7207   -8.4297   -6.9885 O   0  0  0  0  0  0  0  0  0  0  0  0
  -30.0278   -7.7849   -9.0228 H   0  0  0  0  0  0  0  0  0  0  0  0
  -28.7611   -8.9283   -9.1814 H   0  0  0  0  0  0  0  0  0  0  0  0
  -27.1132   -1.8008  -10.9230 C   0  0  0  0  0  0  0  0  0  0  0  0
  -28.1014   -1.0693  -10.9234 O   0  0  0  0  0  0  0  0  0  0  0  0
  -26.7969   -2.7262   -9.9320 N   0  0  0  0  0  0  0  0  0  0  0  0
  -25.8875   -3.1719   -9.9539 H   0  0  0  0  0  0  0  0  0  0  0  0
  -22.6293   -0.2713  -12.3593 C   0  0  0  0  0  0  0  0  0  0  0  0
  -23.9731   -0.8020  -12.7523 C   0  0  0  0  0  0  0  0  0  0  0  0
  -24.3559   -0.9475  -14.0820 C   0  0  0  0  0  0  0  0  0  0  0  0
  -25.6346   -1.4214  -14.4108 C   0  0  0  0  0  0  0  0  0  0  0  0
  -26.5608   -1.7488  -13.4111 C   0  0  0  0  0  0  0  0  0  0  0  0
  -26.1900   -1.6096  -12.0733 C   0  0  0  0  0  0  0  0  0  0  0  0
  -24.9011   -1.1363  -11.7567 C   0  0  0  0  0  0  0  0  0  0  0  0
 25 26  1  0  0  0
 26 27  1  0  0  0
 26 31  2  0  0  0
 27 28  2  0  0  0
 28 29  1  0  0  0
 29 30  2  0  0  0
 30 21  1  0  0  0
 30 31  1  0  0  0
 21 22  2  0  0  0
 21 23  1  0  0  0
 23  1  1  0  0  0
 23 24  1  0  0  0
  1  2  1  0  0  0
  1  6  2  0  0  0
  2  3  2  0  0  0
  3  4  1  0  0  0
  4  5  2  0  0  0
  5  7  1  0  0  0
  5  6  1  0  0  0
  7  8  2  0  0  0
  7 15  1  0  0  0
  8  9  1  0  0  0
  9 10  1  0  0  0
  9 14  2  0  0  0
 10 11  2  0  0  0
 11 12  1  0  0  0
 12 13  2  0  0  0
 13 14  1  0  0  0
 14 15  1  0  0  0
 15 16  1  0  0  0
 16 17  1  0  0  0
 16 18  2  0  0  0
 17 19  1  0  0  0
 17 20  1  0  0  0
M  END
> <minimizedAffinity>
-9.84907

$$$$
