CHEMBL2206665


 26 29  0  0  0  0  0  0  0  0999 V2000
  -28.3561   10.9699  -15.7910 C   0  0  0  0  0  0  0  0  0  0  0  0
  -28.2680    9.7360  -16.4493 C   0  0  0  0  0  0  0  0  0  0  0  0
  -27.0493    9.2478  -16.9145 C   0  0  0  0  0  0  0  0  0  0  0  0
  -25.8961    9.9972  -16.7517 C   0  0  0  0  0  0  0  0  0  0  0  0
  -25.9792   11.2663  -16.1778 C   0  0  0  0  0  0  0  0  0  0  0  0
  -27.1985   11.7568  -15.6829 C   0  0  0  0  0  0  0  0  0  0  0  0
  -29.6086   10.1298  -13.2901 O   0  0  0  0  0  0  0  0  0  0  0  0
  -30.1220   10.9546  -14.0399 C   0  0  0  0  0  0  0  0  0  0  0  0
  -29.5769   11.4324  -15.2272 N   0  0  0  0  0  0  0  0  0  0  0  0
  -29.9820   12.2680  -15.6294 H   0  0  0  0  0  0  0  0  0  0  0  0
  -31.4151   11.5374  -13.5958 C   0  0  0  0  0  0  0  0  0  0  0  0
  -31.7419   11.4175  -12.2350 C   0  0  0  0  0  0  0  0  0  0  0  0
  -32.9776   11.8545  -11.7614 C   0  0  0  0  0  0  0  0  0  0  0  0
  -33.8981   12.4068  -12.6480 C   0  0  0  0  0  0  0  0  0  0  0  0
  -33.5824   12.5236  -14.0045 C   0  0  0  0  0  0  0  0  0  0  0  0
  -32.3409   12.0906  -14.4843 C   0  0  0  0  0  0  0  0  0  0  0  0
  -24.8081   12.0359  -15.9758 O   0  0  0  0  0  0  0  0  0  0  0  0
  -23.7886   11.9668  -16.9234 C   0  0  0  0  0  0  0  0  0  0  0  0
  -22.6609   11.1871  -16.3602 C   0  0  0  0  0  0  0  0  0  0  0  0
  -21.6051   10.9943  -17.1643 C   0  0  0  0  0  0  0  0  0  0  0  0
  -21.6157   11.5469  -18.4664 C   0  0  0  0  0  0  0  0  0  0  0  0
  -20.7258   11.5103  -19.4388 N   0  0  0  0  0  0  0  0  0  0  0  0
  -21.3002   12.2045  -20.4753 C   0  0  0  0  0  0  0  0  0  0  0  0
  -22.5524   12.6573  -20.1341 C   0  0  0  0  0  0  0  0  0  0  0  0
  -22.7467   12.2528  -18.8432 N   0  0  0  0  0  0  0  0  0  0  0  0
  -23.8586   12.4979  -18.1013 N   0  0  0  0  0  0  0  0  0  0  0  0
  7  8  2  0  0  0
  8  9  1  0  0  0
  8 11  1  0  0  0
  9  1  1  0  0  0
  9 10  1  0  0  0
  1  2  1  0  0  0
  1  6  2  0  0  0
  2  3  2  0  0  0
  3  4  1  0  0  0
  4  5  2  0  0  0
  5 17  1  0  0  0
  5  6  1  0  0  0
 17 18  1  0  0  0
 18 19  1  0  0  0
 18 26  2  0  0  0
 19 20  2  0  0  0
 20 21  1  0  0  0
 21 22  2  0  0  0
 21 25  1  0  0  0
 22 23  1  0  0  0
 23 24  2  0  0  0
 24 25  1  0  0  0
 25 26  1  0  0  0
 11 12  1  0  0  0
 11 16  2  0  0  0
 12 13  2  0  0  0
 13 14  1  0  0  0
 14 15  2  0  0  0
 15 16  1  0  0  0
M  END
> <minimizedAffinity>
-5.81681

$$$$
