CHEMBL3109344


 32 36  0  0  0  0  0  0  0  0999 V2000
  -30.1221   -7.1669   -6.0232 C   0  0  0  0  0  0  0  0  0  0  0  0
  -30.9819   -7.4734   -7.0654 C   0  0  0  0  0  0  0  0  0  0  0  0
  -30.6961   -8.5739   -7.8553 C   0  0  0  0  0  0  0  0  0  0  0  0
  -29.5760   -9.3573   -7.5756 C   0  0  0  0  0  0  0  0  0  0  0  0
  -29.3234  -10.4966   -8.3509 C   0  0  0  0  0  0  0  0  0  0  0  0
  -28.2665  -11.3359   -8.0355 C   0  0  0  0  0  0  0  0  0  0  0  0
  -27.4245  -11.0074   -6.9806 C   0  0  0  0  0  0  0  0  0  0  0  0
  -27.6026   -9.8085   -6.2689 C   0  0  0  0  0  0  0  0  0  0  0  0
  -28.7270   -8.9872   -6.5057 C   0  0  0  0  0  0  0  0  0  0  0  0
  -29.0071   -7.8860   -5.7574 N   0  0  0  0  0  0  0  0  0  0  0  0
  -29.0039   -2.1997   -4.7439 C   0  0  0  0  0  0  0  0  0  0  0  0
  -28.3567   -3.0373   -5.7484 C   0  0  0  0  0  0  0  0  0  0  0  0
  -28.7645   -4.3062   -5.9159 C   0  0  0  0  0  0  0  0  0  0  0  0
  -29.8000   -4.8127   -5.1312 N   0  0  0  0  0  0  0  0  0  0  0  0
  -30.4163   -6.0487   -5.1333 C   0  0  0  0  0  0  0  0  0  0  0  0
  -31.3754   -5.9486   -4.1356 C   0  0  0  0  0  0  0  0  0  0  0  0
  -31.3926   -4.7127   -3.5520 N   0  0  0  0  0  0  0  0  0  0  0  0
  -30.4430   -4.0386   -4.1628 C   0  0  0  0  0  0  0  0  0  0  0  0
  -30.0082   -2.6937   -3.9924 C   0  0  0  0  0  0  0  0  0  0  0  0
  -28.6060   -0.8873   -4.5505 O   0  0  0  0  0  0  0  0  0  0  0  0
  -27.8126   -0.2820   -5.5677 C   0  0  0  0  0  0  0  0  0  0  0  0
  -28.5286    0.9376   -6.1255 C   0  0  0  0  0  0  0  0  0  0  0  0
  -30.8119    1.5033   -6.1961 C   0  0  0  0  0  0  0  0  0  0  0  0
  -29.7169    1.1519   -5.3636 O   0  0  0  0  0  0  0  0  0  0  0  0
  -26.6972   -9.3731   -5.3172 O   0  0  0  0  0  0  0  0  0  0  0  0
  -25.6908  -10.3078   -4.8846 C   0  0  0  0  0  0  0  0  0  0  0  0
  -24.2664   -9.8091   -5.1838 C   0  0  0  0  0  0  0  0  0  0  0  0
  -23.2400  -10.7850   -4.6218 C   0  0  0  0  0  0  0  0  0  0  0  0
  -23.4431  -10.9787   -3.1226 C   0  0  0  0  0  0  0  0  0  0  0  0
  -24.8036  -11.4269   -2.8194 N   0  0  0  0  0  0  0  0  0  0  0  0
  -25.8159  -10.5032   -3.3565 C   0  0  0  0  0  0  0  0  0  0  0  0
  -24.9161  -11.4961   -1.8076 H   0  0  0  0  0  0  0  0  0  0  0  0
 23 24  1  0  0  0
 24 22  1  0  0  0
 22 21  1  0  0  0
 21 20  1  0  0  0
 20 11  1  0  0  0
 11 12  1  0  0  0
 11 19  2  0  0  0
 12 13  2  0  0  0
 13 14  1  0  0  0
 14 15  1  0  0  0
 14 18  1  0  0  0
 15  1  1  0  0  0
 15 16  2  0  0  0
  1  2  1  0  0  0
  1 10  2  0  0  0
  2  3  2  0  0  0
  3  4  1  0  0  0
  4  5  1  0  0  0
  4  9  2  0  0  0
  5  6  2  0  0  0
  6  7  1  0  0  0
  7  8  2  0  0  0
  8 25  1  0  0  0
  8  9  1  0  0  0
 26 27  1  0  0  0
 26 31  1  0  0  0
 26 25  1  0  0  0
 27 28  1  0  0  0
 28 29  1  0  0  0
 29 30  1  0  0  0
 30 31  1  0  0  0
 30 32  1  0  0  0
  9 10  1  0  0  0
 16 17  1  0  0  0
 17 18  2  0  0  0
 18 19  1  0  0  0
M  END
> <minimizedAffinity>
-7.95510

$$$$
