CHEMBL3297895


 20 22  0  0  0  0  0  0  0  0999 V2000
  -12.3960    2.7416  -13.9416 C   0  0  0  0  0  0  0  0  0  0  0  0
  -13.4486    1.6745  -13.9375 C   0  0  0  0  0  0  0  0  0  0  0  0
  -14.4698    1.8373  -14.8026 N   0  0  0  0  0  0  0  0  0  0  0  0
  -15.4659    0.9191  -14.8716 C   0  0  0  0  0  0  0  0  0  0  0  0
  -15.3830   -0.1853  -14.0203 C   0  0  0  0  0  0  0  0  0  0  0  0
  -16.1636   -1.3370  -13.7371 C   0  0  0  0  0  0  0  0  0  0  0  0
  -15.5076   -2.0076  -12.7286 C   0  0  0  0  0  0  0  0  0  0  0  0
  -15.7975   -3.2491  -11.9850 C   0  0  0  0  0  0  0  0  0  0  0  0
  -14.3697   -1.3426  -12.3812 O   0  0  0  0  0  0  0  0  0  0  0  0
  -14.2926   -0.2297  -13.1668 C   0  0  0  0  0  0  0  0  0  0  0  0
  -13.2943    0.6600  -13.0763 N   0  0  0  0  0  0  0  0  0  0  0  0
  -16.5180    1.0897  -15.7806 N   0  0  0  0  0  0  0  0  0  0  0  0
  -16.4508    0.5349  -16.6221 H   0  0  0  0  0  0  0  0  0  0  0  0
  -17.8143    1.5602  -15.5078 C   0  0  0  0  0  0  0  0  0  0  0  0
  -18.0737    2.9344  -15.5680 C   0  0  0  0  0  0  0  0  0  0  0  0
  -19.3408    3.4349  -15.2483 C   0  0  0  0  0  0  0  0  0  0  0  0
  -20.3593    2.5604  -14.8756 C   0  0  0  0  0  0  0  0  0  0  0  0
  -21.9154    3.1727  -14.4769 Cl  0  0  0  0  0  0  0  0  0  0  0  0
  -20.1215    1.1924  -14.8167 C   0  0  0  0  0  0  0  0  0  0  0  0
  -18.8511    0.6994  -15.1206 C   0  0  0  0  0  0  0  0  0  0  0  0
  1  2  1  0  0  0
  2  3  1  0  0  0
  2 11  2  0  0  0
  3  4  2  0  0  0
  4 12  1  0  0  0
  4  5  1  0  0  0
 12 14  1  0  0  0
 12 13  1  0  0  0
 14 15  1  0  0  0
 14 20  2  0  0  0
 15 16  2  0  0  0
 16 17  1  0  0  0
 17 18  1  0  0  0
 17 19  2  0  0  0
 19 20  1  0  0  0
  5  6  1  0  0  0
  5 10  2  0  0  0
  6  7  2  0  0  0
  7  8  1  0  0  0
  7  9  1  0  0  0
  9 10  1  0  0  0
 10 11  1  0  0  0
M  END
> <minimizedAffinity>
-7.24679

$$$$
