CHEMBL598852


 34 36  0  0  0  0  0  0  0  0999 V2000
  -28.6741   -2.4311   -6.3137 N   0  0  0  0  0  0  0  0  0  0  0  0
  -29.5397   -2.5509   -5.2274 C   0  0  0  0  0  0  0  0  0  0  0  0
  -29.8210   -1.6258   -4.4687 O   0  0  0  0  0  0  0  0  0  0  0  0
  -30.1660   -3.8721   -4.9997 C   0  0  0  0  0  0  0  0  0  0  0  0
  -31.0218   -4.0321   -3.9045 C   0  0  0  0  0  0  0  0  0  0  0  0
  -31.6646   -5.2481   -3.6997 C   0  0  0  0  0  0  0  0  0  0  0  0
  -31.4396   -6.3017   -4.5853 C   0  0  0  0  0  0  0  0  0  0  0  0
  -30.5655   -6.1800   -5.6903 C   0  0  0  0  0  0  0  0  0  0  0  0
  -30.2867   -7.2567   -6.5864 C   0  0  0  0  0  0  0  0  0  0  0  0
  -29.4126   -7.0409   -7.6577 C   0  0  0  0  0  0  0  0  0  0  0  0
  -28.7869   -5.8137   -7.8427 C   0  0  0  0  0  0  0  0  0  0  0  0
  -29.0398   -4.7655   -6.9593 C   0  0  0  0  0  0  0  0  0  0  0  0
  -29.9185   -4.9285   -5.8870 C   0  0  0  0  0  0  0  0  0  0  0  0
  -28.3660   -3.4690   -7.1898 C   0  0  0  0  0  0  0  0  0  0  0  0
  -27.5878   -3.3640   -8.1345 O   0  0  0  0  0  0  0  0  0  0  0  0
  -30.9085   -8.5038   -6.3909 N   0  0  0  0  0  0  0  0  0  0  0  0
  -31.1012   -8.6802   -5.4037 H   0  0  0  0  0  0  0  0  0  0  0  0
  -32.0683   -8.8388   -7.2206 C   0  0  0  0  0  0  0  0  0  0  0  0
  -31.7837  -10.0860   -8.0688 C   0  0  0  0  0  0  0  0  0  0  0  0
  -30.3618  -10.4683   -8.0313 N   0  0  0  0  0  0  0  0  0  0  0  0
  -30.1563  -10.9260   -7.1430 H   0  0  0  0  0  0  0  0  0  0  0  0
  -30.0868  -11.4059   -9.1293 C   0  0  0  0  0  0  0  0  0  0  0  0
  -28.5850  -11.7387   -9.2252 C   0  0  0  0  0  0  0  0  0  0  0  0
  -27.9312  -11.1651  -10.4192 N   0  0  0  0  0  0  0  0  0  0  0  0
  -28.8929  -10.5006  -11.3027 C   0  0  0  0  0  0  0  0  0  0  0  0
  -26.9022  -10.2080  -10.0046 C   0  0  0  0  0  0  0  0  0  0  0  0
  -28.1093   -1.1126   -6.5949 C   0  0  0  0  0  0  0  0  0  0  0  0
  -27.5686   -0.3806   -5.3637 C   0  0  0  0  0  0  0  0  0  0  0  0
  -28.2210    0.9827   -5.1534 C   0  0  0  0  0  0  0  0  0  0  0  0
  -29.0449    1.3766   -6.3765 C   0  0  0  0  0  0  0  0  0  0  0  0
  -30.5339    1.3979   -6.0439 C   0  0  0  0  0  0  0  0  0  0  0  0
  -31.2533    2.4914   -6.8284 C   0  0  0  0  0  0  0  0  0  0  0  0
  -32.6900    2.7465   -8.8742 C   0  0  0  0  0  0  0  0  0  0  0  0
  -32.4127    1.9127   -7.6355 C   0  0  0  0  0  0  0  0  0  0  0  0
 33 34  1  0  0  0
 34 32  1  0  0  0
 32 31  1  0  0  0
 31 30  1  0  0  0
 30 29  1  0  0  0
 29 28  1  0  0  0
 28 27  1  0  0  0
 27  1  1  0  0  0
  1  2  1  0  0  0
  1 14  1  0  0  0
  2  3  2  0  0  0
  2  4  1  0  0  0
  4  5  1  0  0  0
  4 13  2  0  0  0
  5  6  2  0  0  0
  6  7  1  0  0  0
  7  8  2  0  0  0
  8  9  1  0  0  0
  8 13  1  0  0  0
  9 16  1  0  0  0
  9 10  2  0  0  0
 16 18  1  0  0  0
 16 17  1  0  0  0
 18 19  1  0  0  0
 19 20  1  0  0  0
 20 22  1  0  0  0
 20 21  1  0  0  0
 22 23  1  0  0  0
 23 24  1  0  0  0
 24 25  1  0  0  0
 24 26  1  0  0  0
 10 11  1  0  0  0
 11 12  2  0  0  0
 12 13  1  0  0  0
 12 14  1  0  0  0
 14 15  2  0  0  0
M  END
> <minimizedAffinity>
-8.05104

$$$$
