CHEMBL427709


 24 27  0  0  0  0  0  0  0  0999 V2000
  -29.5535   -7.9491   -7.5112 C   0  0  0  0  0  0  0  0  0  0  0  0
  -30.3191   -8.9017   -8.0699 C   0  0  0  0  0  0  0  0  0  0  0  0
  -31.7859   -9.1185   -7.9896 C   0  0  0  0  0  0  0  0  0  0  0  0
  -32.6719   -8.3678   -7.6408 O   0  0  0  0  0  0  0  0  0  0  0  0
  -31.9345  -10.4093   -8.4685 N   0  0  0  0  0  0  0  0  0  0  0  0
  -30.7994  -10.9649   -9.0061 N   0  0  0  0  0  0  0  0  0  0  0  0
  -29.8384  -10.0880   -8.8315 C   0  0  0  0  0  0  0  0  0  0  0  0
  -32.8360  -10.8592   -8.5822 H   0  0  0  0  0  0  0  0  0  0  0  0
  -27.9646   -2.5329   -8.5713 C   0  0  0  0  0  0  0  0  0  0  0  0
  -28.7628   -3.3307   -7.5807 C   0  0  0  0  0  0  0  0  0  0  0  0
  -29.3708   -2.6984   -6.4929 C   0  0  0  0  0  0  0  0  0  0  0  0
  -30.1000   -3.4239   -5.5485 C   0  0  0  0  0  0  0  0  0  0  0  0
  -30.2051   -4.8119   -5.7151 C   0  0  0  0  0  0  0  0  0  0  0  0
  -29.6236   -5.4850   -6.7973 C   0  0  0  0  0  0  0  0  0  0  0  0
  -28.8940   -4.7219   -7.7406 C   0  0  0  0  0  0  0  0  0  0  0  0
  -29.9475   -6.8732   -6.6527 C   0  0  0  0  0  0  0  0  0  0  0  0
  -30.6315   -7.0088   -5.4667 C   0  0  0  0  0  0  0  0  0  0  0  0
  -30.8342   -5.7629   -4.9435 N   0  0  0  0  0  0  0  0  0  0  0  0
  -31.5907   -5.4953   -3.7407 C   0  0  0  0  0  0  0  0  0  0  0  0
  -28.5298  -10.2803   -9.3726 C   0  0  0  0  0  0  0  0  0  0  0  0
  -27.9850   -9.9741  -10.6055 C   0  0  0  0  0  0  0  0  0  0  0  0
  -26.6644  -10.3507  -10.7857 N   0  0  0  0  0  0  0  0  0  0  0  0
  -26.1851  -10.9628   -9.7171 N   0  0  0  0  0  0  0  0  0  0  0  0
  -27.3110  -11.1039   -8.4878 S   0  0  0  0  0  0  0  0  0  0  0  0
  9 10  1  0  0  0
 10 11  1  0  0  0
 10 15  2  0  0  0
 11 12  2  0  0  0
 12 13  1  0  0  0
 13 14  2  0  0  0
 13 18  1  0  0  0
 14 15  1  0  0  0
 14 16  1  0  0  0
 16  1  1  0  0  0
 16 17  2  0  0  0
  1  2  2  0  0  0
  2  3  1  0  0  0
  2  7  1  0  0  0
  3  4  2  0  0  0
  3  5  1  0  0  0
  5  6  1  0  0  0
  5  8  1  0  0  0
  6  7  2  0  0  0
  7 20  1  0  0  0
 20 21  2  0  0  0
 20 24  1  0  0  0
 21 22  1  0  0  0
 22 23  2  0  0  0
 23 24  1  0  0  0
 17 18  1  0  0  0
 18 19  1  0  0  0
M  END
> <minimizedAffinity>
-8.76362

$$$$
