CHEMBL2409780


 35 39  0  0  0  0  0  0  0  0999 V2000
  -27.9278   -2.6133   -8.1637 C   0  0  0  0  0  0  0  0  0  0  0  0
  -28.5488   -3.8653   -8.0079 C   0  0  0  0  0  0  0  0  0  0  0  0
  -29.4145   -4.1332   -6.9440 C   0  0  0  0  0  0  0  0  0  0  0  0
  -29.5896   -3.1769   -5.9515 C   0  0  0  0  0  0  0  0  0  0  0  0
  -28.9942   -1.9237   -6.0890 C   0  0  0  0  0  0  0  0  0  0  0  0
  -28.1778   -1.6176   -7.1969 C   0  0  0  0  0  0  0  0  0  0  0  0
  -27.6307   -0.2198   -7.2958 C   0  0  0  0  0  0  0  0  0  0  0  0
  -27.3814   -1.5952  -10.3809 C   0  0  0  0  0  0  0  0  0  0  0  0
  -28.4398   -0.9760  -10.4699 O   0  0  0  0  0  0  0  0  0  0  0  0
  -27.0538   -2.3457   -9.2599 N   0  0  0  0  0  0  0  0  0  0  0  0
  -26.0923   -2.6401   -9.1645 H   0  0  0  0  0  0  0  0  0  0  0  0
  -23.2916   -0.8599  -13.3489 C   0  0  0  0  0  0  0  0  0  0  0  0
  -24.6109   -1.2094  -12.7706 C   0  0  0  0  0  0  0  0  0  0  0  0
  -25.0368   -1.1930  -11.4216 C   0  0  0  0  0  0  0  0  0  0  0  0
  -26.3873   -1.5226  -11.4387 C   0  0  0  0  0  0  0  0  0  0  0  0
  -26.6487   -1.7982  -12.7685 N   0  0  0  0  0  0  0  0  0  0  0  0
  -27.8673   -2.2459  -13.4053 C   0  0  0  0  0  0  0  0  0  0  0  0
  -25.5965   -1.5836  -13.5832 N   0  0  0  0  0  0  0  0  0  0  0  0
  -30.0062   -5.3781   -6.9330 O   0  0  0  0  0  0  0  0  0  0  0  0
  -29.6834   -6.3227   -5.9649 C   0  0  0  0  0  0  0  0  0  0  0  0
  -30.3318   -6.3020   -4.6523 C   0  0  0  0  0  0  0  0  0  0  0  0
  -29.9564   -7.1405   -3.6695 C   0  0  0  0  0  0  0  0  0  0  0  0
  -28.9714   -8.1274   -3.9291 C   0  0  0  0  0  0  0  0  0  0  0  0
  -28.4465   -9.0395   -3.1487 N   0  0  0  0  0  0  0  0  0  0  0  0
  -27.6004   -9.7602   -3.9343 C   0  0  0  0  0  0  0  0  0  0  0  0
  -27.5939   -9.2745   -5.2243 C   0  0  0  0  0  0  0  0  0  0  0  0
  -28.4614   -8.2055   -5.2180 N   0  0  0  0  0  0  0  0  0  0  0  0
  -28.8080   -7.3116   -6.2318 C   0  0  0  0  0  0  0  0  0  0  0  0
  -26.8814  -10.8375   -3.4717 N   0  0  0  0  0  0  0  0  0  0  0  0
  -25.5410  -10.7697   -3.1445 C   0  0  0  0  0  0  0  0  0  0  0  0
  -24.7862   -9.8184   -3.2543 O   0  0  0  0  0  0  0  0  0  0  0  0
  -27.3801  -11.7045   -3.3491 H   0  0  0  0  0  0  0  0  0  0  0  0
  -25.0136  -12.0487   -2.5657 C   0  0  0  0  0  0  0  0  0  0  0  0
  -25.4750  -12.4652   -1.1861 C   0  0  0  0  0  0  0  0  0  0  0  0
  -24.0563  -12.0247   -1.3922 C   0  0  0  0  0  0  0  0  0  0  0  0
 12 13  1  0  0  0
 13 14  1  0  0  0
 13 18  2  0  0  0
 14 15  2  0  0  0
 15  8  1  0  0  0
 15 16  1  0  0  0
  8  9  2  0  0  0
  8 10  1  0  0  0
 10  1  1  0  0  0
 10 11  1  0  0  0
  1  2  1  0  0  0
  1  6  2  0  0  0
  2  3  2  0  0  0
  3 19  1  0  0  0
  3  4  1  0  0  0
 19 20  1  0  0  0
 20 21  1  0  0  0
 20 28  2  0  0  0
 21 22  2  0  0  0
 22 23  1  0  0  0
 23 24  2  0  0  0
 23 27  1  0  0  0
 24 25  1  0  0  0
 25 29  1  0  0  0
 25 26  2  0  0  0
 29 30  1  0  0  0
 29 32  1  0  0  0
 30 31  2  0  0  0
 30 33  1  0  0  0
 33 34  1  0  0  0
 33 35  1  0  0  0
 34 35  1  0  0  0
 26 27  1  0  0  0
 27 28  1  0  0  0
  4  5  2  0  0  0
  5  6  1  0  0  0
  6  7  1  0  0  0
 16 17  1  0  0  0
 16 18  1  0  0  0
M  END
> <minimizedAffinity>
-9.70468

$$$$
