CHEMBL48834


 27 30  0  0  0  0  0  0  0  0999 V2000
  -27.6418   -8.6787   -4.7823 C   0  0  0  0  0  0  0  0  0  0  0  0
  -27.5268   -9.7386   -3.9709 N   0  0  0  0  0  0  0  0  0  0  0  0
  -27.5893  -10.9577   -4.5272 C   0  0  0  0  0  0  0  0  0  0  0  0
  -27.7252  -11.1696   -5.8763 C   0  0  0  0  0  0  0  0  0  0  0  0
  -27.8263  -10.0295   -6.6437 C   0  0  0  0  0  0  0  0  0  0  0  0
  -27.7827   -8.7946   -6.1071 N   0  0  0  0  0  0  0  0  0  0  0  0
  -28.0359  -10.1422   -8.0522 N   0  0  0  0  0  0  0  0  0  0  0  0
  -27.1259  -10.6477   -8.9626 C   0  0  0  0  0  0  0  0  0  0  0  0
  -27.6887  -10.4763  -10.1998 C   0  0  0  0  0  0  0  0  0  0  0  0
  -28.9266   -9.9166  -10.0897 N   0  0  0  0  0  0  0  0  0  0  0  0
  -29.1561   -9.7451   -8.7936 C   0  0  0  0  0  0  0  0  0  0  0  0
  -30.4331   -9.2323   -8.2700 C   0  0  0  0  0  0  0  0  0  0  0  0
  -30.4797   -7.9984   -7.6164 C   0  0  0  0  0  0  0  0  0  0  0  0
  -31.6779   -7.5388   -7.0689 C   0  0  0  0  0  0  0  0  0  0  0  0
  -32.8074   -8.3296   -7.1967 C   0  0  0  0  0  0  0  0  0  0  0  0
  -32.8264   -9.4976   -7.8667 N   0  0  0  0  0  0  0  0  0  0  0  0
  -31.6493   -9.8995   -8.4105 C   0  0  0  0  0  0  0  0  0  0  0  0
  -27.7042   -7.3933   -4.2593 N   0  0  0  0  0  0  0  0  0  0  0  0
  -27.1885   -7.3179   -3.3915 H   0  0  0  0  0  0  0  0  0  0  0  0
  -29.2666   -3.6259   -7.0410 C   0  0  0  0  0  0  0  0  0  0  0  0
  -29.4601   -4.5423   -5.8677 C   0  0  0  0  0  0  0  0  0  0  0  0
  -30.6189   -4.4713   -5.0887 C   0  0  0  0  0  0  0  0  0  0  0  0
  -30.8148   -5.3544   -4.0218 C   0  0  0  0  0  0  0  0  0  0  0  0
  -32.0418   -5.3013   -3.1645 C   0  0  0  0  0  0  0  0  0  0  0  0
  -29.8390   -6.3189   -3.7536 C   0  0  0  0  0  0  0  0  0  0  0  0
  -28.6617   -6.3991   -4.5032 C   0  0  0  0  0  0  0  0  0  0  0  0
  -28.4808   -5.4996   -5.5597 C   0  0  0  0  0  0  0  0  0  0  0  0
 20 21  1  0  0  0
 21 22  1  0  0  0
 21 27  2  0  0  0
 22 23  2  0  0  0
 23 24  1  0  0  0
 23 25  1  0  0  0
 25 26  2  0  0  0
 26 18  1  0  0  0
 26 27  1  0  0  0
 18  1  1  0  0  0
 18 19  1  0  0  0
  1  2  1  0  0  0
  1  6  2  0  0  0
  2  3  2  0  0  0
  3  4  1  0  0  0
  4  5  2  0  0  0
  5  7  1  0  0  0
  5  6  1  0  0  0
  7  8  1  0  0  0
  7 11  1  0  0  0
  8  9  2  0  0  0
  9 10  1  0  0  0
 10 11  2  0  0  0
 11 12  1  0  0  0
 12 13  1  0  0  0
 12 17  2  0  0  0
 13 14  2  0  0  0
 14 15  1  0  0  0
 15 16  2  0  0  0
 16 17  1  0  0  0
M  END
> <minimizedAffinity>
-8.03306

$$$$
