CHEMBL460772


 35 39  0  0  0  0  0  0  0  0999 V2000
  -28.6698   -2.2316   -7.6447 C   0  0  0  0  0  0  0  0  0  0  0  0
  -28.5041   -3.1926   -8.6458 C   0  0  0  0  0  0  0  0  0  0  0  0
  -27.6099   -2.9717   -9.7017 C   0  0  0  0  0  0  0  0  0  0  0  0
  -26.8526   -1.7915   -9.7821 C   0  0  0  0  0  0  0  0  0  0  0  0
  -27.0433   -0.8317   -8.7712 C   0  0  0  0  0  0  0  0  0  0  0  0
  -27.9550   -1.0398   -7.7370 C   0  0  0  0  0  0  0  0  0  0  0  0
  -28.1045   -0.0639   -6.8303 F   0  0  0  0  0  0  0  0  0  0  0  0
  -25.9251   -1.5486  -10.8999 C   0  0  0  0  0  0  0  0  0  0  0  0
  -26.3324   -1.4136  -12.2219 C   0  0  0  0  0  0  0  0  0  0  0  0
  -25.3710   -1.2703  -13.2242 C   0  0  0  0  0  0  0  0  0  0  0  0
  -24.0372   -1.2670  -12.8653 C   0  0  0  0  0  0  0  0  0  0  0  0
  -23.6622   -1.3739  -11.5743 N   0  0  0  0  0  0  0  0  0  0  0  0
  -24.6094   -1.5094  -10.5870 N   0  0  0  0  0  0  0  0  0  0  0  0
  -22.9501   -1.0983  -13.8951 C   0  0  0  0  0  0  0  0  0  0  0  0
  -22.4595    0.3253  -14.0211 C   0  0  0  0  0  0  0  0  0  0  0  0
  -21.1894    0.5913  -14.5542 C   0  0  0  0  0  0  0  0  0  0  0  0
  -20.7254    1.9018  -14.6720 C   0  0  0  0  0  0  0  0  0  0  0  0
  -21.5301    2.9630  -14.2653 C   0  0  0  0  0  0  0  0  0  0  0  0
  -22.7985    2.7124  -13.7405 C   0  0  0  0  0  0  0  0  0  0  0  0
  -23.2616    1.4022  -13.6165 C   0  0  0  0  0  0  0  0  0  0  0  0
  -29.5599   -2.5731   -6.6581 O   0  0  0  0  0  0  0  0  0  0  0  0
  -29.2983   -7.5330   -5.1302 C   0  0  0  0  0  0  0  0  0  0  0  0
  -28.9341   -6.6704   -4.0800 C   0  0  0  0  0  0  0  0  0  0  0  0
  -28.8853   -5.2902   -4.2244 C   0  0  0  0  0  0  0  0  0  0  0  0
  -28.6121   -4.5513   -3.1348 N   0  0  0  0  0  0  0  0  0  0  0  0
  -28.6432   -3.2083   -3.2484 C   0  0  0  0  0  0  0  0  0  0  0  0
  -28.9222   -2.5471   -4.4231 C   0  0  0  0  0  0  0  0  0  0  0  0
  -29.1675   -3.3111   -5.5610 C   0  0  0  0  0  0  0  0  0  0  0  0
  -29.1707   -4.7253   -5.4817 C   0  0  0  0  0  0  0  0  0  0  0  0
  -29.4527   -5.6057   -6.5496 C   0  0  0  0  0  0  0  0  0  0  0  0
  -29.4962   -6.9949   -6.3995 C   0  0  0  0  0  0  0  0  0  0  0  0
  -28.5687   -9.4371   -3.9428 C   0  0  0  0  0  0  0  0  0  0  0  0
  -29.4475   -8.8793   -4.9252 O   0  0  0  0  0  0  0  0  0  0  0  0
  -29.7446   -7.6120   -7.5910 O   0  0  0  0  0  0  0  0  0  0  0  0
  -28.6668   -7.9911   -8.4264 C   0  0  0  0  0  0  0  0  0  0  0  0
 32 33  1  0  0  0
 33 22  1  0  0  0
 22 23  1  0  0  0
 22 31  2  0  0  0
 23 24  2  0  0  0
 24 25  1  0  0  0
 24 29  1  0  0  0
 25 26  2  0  0  0
 26 27  1  0  0  0
 27 28  2  0  0  0
 28 21  1  0  0  0
 28 29  1  0  0  0
 21  1  1  0  0  0
  1  2  1  0  0  0
  1  6  2  0  0  0
  2  3  2  0  0  0
  3  4  1  0  0  0
  4  8  1  0  0  0
  4  5  2  0  0  0
  8  9  1  0  0  0
  8 13  2  0  0  0
  9 10  2  0  0  0
 10 11  1  0  0  0
 11 14  1  0  0  0
 11 12  2  0  0  0
 14 15  1  0  0  0
 15 16  1  0  0  0
 15 20  2  0  0  0
 16 17  2  0  0  0
 17 18  1  0  0  0
 18 19  2  0  0  0
 19 20  1  0  0  0
 12 13  1  0  0  0
  5  6  1  0  0  0
  6  7  1  0  0  0
 29 30  2  0  0  0
 30 31  1  0  0  0
 31 34  1  0  0  0
 34 35  1  0  0  0
M  END
> <minimizedAffinity>
-9.52529

$$$$
