CHEMBL3656095


 43 47  0  0  0  0  0  0  0  0999 V2000
  -14.5242    3.0435  -16.2480 C   0  0  0  0  0  0  0  0  0  0  0  0
  -13.6198    3.1953  -15.2019 C   0  0  0  0  0  0  0  0  0  0  0  0
  -12.8224    4.3247  -15.1919 C   0  0  0  0  0  0  0  0  0  0  0  0
  -12.8360    5.2622  -16.1617 N   0  0  0  0  0  0  0  0  0  0  0  0
  -13.6768    5.0564  -17.2069 C   0  0  0  0  0  0  0  0  0  0  0  0
  -14.5333    3.9693  -17.2881 C   0  0  0  0  0  0  0  0  0  0  0  0
  -13.5948    6.0836  -18.2371 C   0  0  0  0  0  0  0  0  0  0  0  0
  -14.0106    7.4026  -18.2891 C   0  0  0  0  0  0  0  0  0  0  0  0
  -13.6298    7.9593  -19.5513 C   0  0  0  0  0  0  0  0  0  0  0  0
  -13.0995    6.9060  -20.2763 C   0  0  0  0  0  0  0  0  0  0  0  0
  -13.0130    5.8164  -19.4552 N   0  0  0  0  0  0  0  0  0  0  0  0
  -12.6086    4.9163  -19.6831 H   0  0  0  0  0  0  0  0  0  0  0  0
  -13.8513    9.3446  -19.9732 C   0  0  0  0  0  0  0  0  0  0  0  0
  -12.8989   10.1215  -20.0162 O   0  0  0  0  0  0  0  0  0  0  0  0
  -15.1371    9.7403  -20.3629 N   0  0  0  0  0  0  0  0  0  0  0  0
  -16.2979    8.8658  -20.5342 C   0  0  0  0  0  0  0  0  0  0  0  0
  -16.9166    8.9966  -21.9227 C   0  0  0  0  0  0  0  0  0  0  0  0
  -17.1838   10.4467  -22.2958 C   0  0  0  0  0  0  0  0  0  0  0  0
  -15.9222   11.2951  -22.1259 C   0  0  0  0  0  0  0  0  0  0  0  0
  -16.2313   12.6554  -22.4174 O   0  0  0  0  0  0  0  0  0  0  0  0
  -15.3603   11.1445  -20.7044 C   0  0  0  0  0  0  0  0  0  0  0  0
  -16.9274   12.9489  -21.8057 H   0  0  0  0  0  0  0  0  0  0  0  0
  -15.3838    1.9760  -16.3772 O   0  0  0  0  0  0  0  0  0  0  0  0
  -19.1520    1.8692  -14.5501 C   0  0  0  0  0  0  0  0  0  0  0  0
  -18.2376    0.8231  -14.4145 C   0  0  0  0  0  0  0  0  0  0  0  0
  -16.9859    0.8911  -15.0393 C   0  0  0  0  0  0  0  0  0  0  0  0
  -16.6321    2.0145  -15.7944 C   0  0  0  0  0  0  0  0  0  0  0  0
  -17.5598    3.0435  -15.9704 C   0  0  0  0  0  0  0  0  0  0  0  0
  -18.8030    2.9659  -15.3439 C   0  0  0  0  0  0  0  0  0  0  0  0
  -19.6531    3.9979  -15.4547 F   0  0  0  0  0  0  0  0  0  0  0  0
  -22.5252    1.0270  -13.4724 N   0  0  0  0  0  0  0  0  0  0  0  0
  -21.3521    0.8800  -14.1942 C   0  0  0  0  0  0  0  0  0  0  0  0
  -21.1159   -0.0254  -14.9895 O   0  0  0  0  0  0  0  0  0  0  0  0
  -20.4173    1.8628  -13.9006 N   0  0  0  0  0  0  0  0  0  0  0  0
  -22.6730    1.9161  -13.0174 H   0  0  0  0  0  0  0  0  0  0  0  0
  -20.4046    2.1611  -12.9337 H   0  0  0  0  0  0  0  0  0  0  0  0
  -25.9416   -1.4819  -10.8599 C   0  0  0  0  0  0  0  0  0  0  0  0
  -25.2794   -1.1361  -12.1657 C   0  0  0  0  0  0  0  0  0  0  0  0
  -25.7325   -1.7437  -13.3391 C   0  0  0  0  0  0  0  0  0  0  0  0
  -25.1356   -1.4402  -14.5531 C   0  0  0  0  0  0  0  0  0  0  0  0
  -24.0792   -0.5286  -14.6055 C   0  0  0  0  0  0  0  0  0  0  0  0
  -23.6059    0.1042  -13.4514 C   0  0  0  0  0  0  0  0  0  0  0  0
  -24.2174   -0.2110  -12.2255 C   0  0  0  0  0  0  0  0  0  0  0  0
 37 38  1  0  0  0
 38 39  1  0  0  0
 38 43  2  0  0  0
 39 40  2  0  0  0
 40 41  1  0  0  0
 41 42  2  0  0  0
 42 31  1  0  0  0
 42 43  1  0  0  0
 31 32  1  0  0  0
 31 35  1  0  0  0
 32 33  2  0  0  0
 32 34  1  0  0  0
 34 24  1  0  0  0
 34 36  1  0  0  0
 24 25  1  0  0  0
 24 29  2  0  0  0
 25 26  2  0  0  0
 26 27  1  0  0  0
 27 23  1  0  0  0
 27 28  2  0  0  0
 23  1  1  0  0  0
  1  2  1  0  0  0
  1  6  2  0  0  0
  2  3  2  0  0  0
  3  4  1  0  0  0
  4  5  2  0  0  0
  5  7  1  0  0  0
  5  6  1  0  0  0
  7  8  2  0  0  0
  7 11  1  0  0  0
  8  9  1  0  0  0
  9 13  1  0  0  0
  9 10  2  0  0  0
 13 14  2  0  0  0
 13 15  1  0  0  0
 15 16  1  0  0  0
 15 21  1  0  0  0
 16 17  1  0  0  0
 17 18  1  0  0  0
 18 19  1  0  0  0
 19 20  1  0  0  0
 19 21  1  0  0  0
 20 22  1  0  0  0
 10 11  1  0  0  0
 11 12  1  0  0  0
 28 29  1  0  0  0
 29 30  1  0  0  0
M  END
> <minimizedAffinity>
-9.25840

$$$$
