CHEMBL3985051


 44 46  0  0  0  0  0  0  0  0999 V2000
  -22.4839    1.1812  -14.1078 C   0  0  0  0  0  0  0  0  0  0  0  0
  -22.6753    2.5497  -14.1987 C   0  0  0  0  0  0  0  0  0  0  0  0
  -21.6606    3.4493  -14.3146 N   0  0  0  0  0  0  0  0  0  0  0  0
  -20.3984    2.9714  -14.3531 C   0  0  0  0  0  0  0  0  0  0  0  0
  -19.3941    3.9374  -14.3668 N   0  0  0  0  0  0  0  0  0  0  0  0
  -20.1127    1.6016  -14.2991 C   0  0  0  0  0  0  0  0  0  0  0  0
  -21.1721    0.7026  -14.1731 C   0  0  0  0  0  0  0  0  0  0  0  0
  -19.8297    4.8475  -14.4854 H   0  0  0  0  0  0  0  0  0  0  0  0
  -18.6702    3.7474  -15.0487 H   0  0  0  0  0  0  0  0  0  0  0  0
  -23.6235    0.2437  -13.9293 C   0  0  0  0  0  0  0  0  0  0  0  0
  -23.9540   -0.3927  -14.9273 O   0  0  0  0  0  0  0  0  0  0  0  0
  -24.8881   -1.3357  -12.3657 S   0  0  0  0  0  0  0  0  0  0  0  0
  -23.6038   -2.5646  -12.1987 C   0  0  0  0  0  0  0  0  0  0  0  0
  -25.9349   -1.9170  -13.1846 O   0  0  0  0  0  0  0  0  0  0  0  0
  -24.2159    0.0235  -12.6708 N   0  0  0  0  0  0  0  0  0  0  0  0
  -25.5278   -1.2652  -10.6964 C   0  0  0  0  0  0  0  0  0  0  0  0
  -26.8434   -2.0249  -10.5474 C   0  0  0  0  0  0  0  0  0  0  0  0
  -27.5561   -1.6395   -9.2502 C   0  0  0  0  0  0  0  0  0  0  0  0
  -27.9400   -2.8640   -8.4171 C   0  0  0  0  0  0  0  0  0  0  0  0
  -28.3351   -2.4715   -7.0109 C   0  0  0  0  0  0  0  0  0  0  0  0
  -29.4467   -2.6217   -6.5233 O   0  0  0  0  0  0  0  0  0  0  0  0
  -27.5798   -0.7419   -5.6276 C   0  0  0  0  0  0  0  0  0  0  0  0
  -27.2662   -1.9262   -6.3647 O   0  0  0  0  0  0  0  0  0  0  0  0
  -18.7761    1.0957  -14.4039 C   0  0  0  0  0  0  0  0  0  0  0  0
  -17.6370    0.7213  -14.4791 C   0  0  0  0  0  0  0  0  0  0  0  0
  -16.2640    0.3227  -14.5166 C   0  0  0  0  0  0  0  0  0  0  0  0
  -15.3621    1.0417  -15.3078 C   0  0  0  0  0  0  0  0  0  0  0  0
  -14.0302    0.6422  -15.3889 C   0  0  0  0  0  0  0  0  0  0  0  0
  -13.6024   -0.4782  -14.6803 C   0  0  0  0  0  0  0  0  0  0  0  0
  -14.5001   -1.2074  -13.8846 C   0  0  0  0  0  0  0  0  0  0  0  0
  -15.8352   -0.7981  -13.7927 C   0  0  0  0  0  0  0  0  0  0  0  0
  -13.9502   -2.3735  -13.1399 C   0  0  0  0  0  0  0  0  0  0  0  0
  -12.8409   -2.2360  -12.6372 O   0  0  0  0  0  0  0  0  0  0  0  0
  -14.7258   -3.5165  -13.1228 N   0  0  0  0  0  0  0  0  0  0  0  0
  -15.6116   -3.5399  -13.6065 H   0  0  0  0  0  0  0  0  0  0  0  0
  -14.3119   -4.7034  -12.5362 C   0  0  0  0  0  0  0  0  0  0  0  0
  -13.4546   -5.6525  -13.1507 C   0  0  0  0  0  0  0  0  0  0  0  0
  -13.3134   -6.6639  -12.2245 C   0  0  0  0  0  0  0  0  0  0  0  0
  -14.0313   -6.3309  -11.1178 O   0  0  0  0  0  0  0  0  0  0  0  0
  -14.6503   -5.1209  -11.3136 N   0  0  0  0  0  0  0  0  0  0  0  0
  -12.6002   -7.9878  -12.1735 C   0  0  0  0  0  0  0  0  0  0  0  0
  -12.0765   -8.3786  -13.5664 C   0  0  0  0  0  0  0  0  0  0  0  0
  -11.4071   -7.9114  -11.2024 C   0  0  0  0  0  0  0  0  0  0  0  0
  -13.5725   -9.0796  -11.6884 C   0  0  0  0  0  0  0  0  0  0  0  0
 22 23  1  0  0  0
 23 20  1  0  0  0
 20 21  2  0  0  0
 20 19  1  0  0  0
 19 18  1  0  0  0
 18 17  1  0  0  0
 17 16  1  0  0  0
 16 12  1  0  0  0
 12 13  1  0  0  0
 12 14  2  0  0  0
 12 15  2  0  0  0
 15 10  1  0  0  0
 10 11  2  0  0  0
 10  1  1  0  0  0
  1  2  1  0  0  0
  1  7  2  0  0  0
  2  3  2  0  0  0
  3  4  1  0  0  0
  4  5  1  0  0  0
  4  6  2  0  0  0
  5  8  1  0  0  0
  5  9  1  0  0  0
  6 24  1  0  0  0
  6  7  1  0  0  0
 24 25  3  0  0  0
 25 26  1  0  0  0
 26 27  1  0  0  0
 26 31  2  0  0  0
 27 28  2  0  0  0
 28 29  1  0  0  0
 29 30  2  0  0  0
 30 32  1  0  0  0
 30 31  1  0  0  0
 32 33  2  0  0  0
 32 34  1  0  0  0
 34 36  1  0  0  0
 34 35  1  0  0  0
 36 37  1  0  0  0
 36 40  2  0  0  0
 37 38  2  0  0  0
 38 41  1  0  0  0
 38 39  1  0  0  0
 41 42  1  0  0  0
 41 43  1  0  0  0
 41 44  1  0  0  0
 39 40  1  0  0  0
M  END
> <minimizedAffinity>
-9.16247

$$$$
