CHEMBL3913757


 34 37  0  0  0  0  0  0  0  0999 V2000
  -27.4848   -1.6330   -9.4056 C   0  0  0  0  0  0  0  0  0  0  0  0
  -28.3279   -1.3485  -10.4768 C   0  0  0  0  0  0  0  0  0  0  0  0
  -27.8234   -1.3786  -11.7721 C   0  0  0  0  0  0  0  0  0  0  0  0
  -26.4859   -1.4965  -12.0219 C   0  0  0  0  0  0  0  0  0  0  0  0
  -26.1845   -1.7463  -13.3006 N   0  0  0  0  0  0  0  0  0  0  0  0
  -24.9124   -1.5687  -13.6688 C   0  0  0  0  0  0  0  0  0  0  0  0
  -23.9750   -1.0353  -12.8107 C   0  0  0  0  0  0  0  0  0  0  0  0
  -24.2297   -0.9914  -11.4482 N   0  0  0  0  0  0  0  0  0  0  0  0
  -25.5317   -1.3066  -10.9993 C   0  0  0  0  0  0  0  0  0  0  0  0
  -26.0829   -1.4965   -9.6534 C   0  0  0  0  0  0  0  0  0  0  0  0
  -22.9450   -0.2198  -13.4823 C   0  0  0  0  0  0  0  0  0  0  0  0
  -21.8748   -0.4981  -14.3632 C   0  0  0  0  0  0  0  0  0  0  0  0
  -21.2959    0.6069  -14.8706 N   0  0  0  0  0  0  0  0  0  0  0  0
  -21.9991    1.6213  -14.3295 N   0  0  0  0  0  0  0  0  0  0  0  0
  -23.0523    1.1669  -13.5752 C   0  0  0  0  0  0  0  0  0  0  0  0
  -21.5123    2.9948  -14.3591 C   0  0  0  0  0  0  0  0  0  0  0  0
  -20.3602    3.3259  -15.3072 C   0  0  0  0  0  0  0  0  0  0  0  0
  -19.3323    4.0714  -14.6613 O   0  0  0  0  0  0  0  0  0  0  0  0
  -19.5444    5.0128  -14.7950 H   0  0  0  0  0  0  0  0  0  0  0  0
  -28.1474   -2.3076   -8.2993 N   0  0  0  0  0  0  0  0  0  0  0  0
  -28.9320   -0.2951   -5.1992 C   0  0  0  0  0  0  0  0  0  0  0  0
  -28.6888   -1.2388   -4.2024 C   0  0  0  0  0  0  0  0  0  0  0  0
  -28.2206   -2.5027   -4.5435 C   0  0  0  0  0  0  0  0  0  0  0  0
  -27.9974   -2.8270   -5.8886 C   0  0  0  0  0  0  0  0  0  0  0  0
  -28.2231   -1.9170   -6.9323 C   0  0  0  0  0  0  0  0  0  0  0  0
  -28.6868   -0.6334   -6.5540 C   0  0  0  0  0  0  0  0  0  0  0  0
  -30.5653    1.3803   -5.7233 C   0  0  0  0  0  0  0  0  0  0  0  0
  -29.4331    0.9629   -4.9492 O   0  0  0  0  0  0  0  0  0  0  0  0
  -27.9657   -3.5188   -3.6614 O   0  0  0  0  0  0  0  0  0  0  0  0
  -28.4785   -4.8041   -3.9955 C   0  0  0  0  0  0  0  0  0  0  0  0
  -28.0204   -3.8062   -8.5704 C   0  0  0  0  0  0  0  0  0  0  0  0
  -29.0652   -4.7279   -7.9224 C   0  0  0  0  0  0  0  0  0  0  0  0
  -28.6398   -6.1536   -8.0348 C   0  0  0  0  0  0  0  0  0  0  0  0
  -28.3250   -7.2699   -8.1155 N   0  0  0  0  0  0  0  0  0  0  0  0
 27 28  1  0  0  0
 28 21  1  0  0  0
 21 22  1  0  0  0
 21 26  2  0  0  0
 22 23  2  0  0  0
 23 29  1  0  0  0
 23 24  1  0  0  0
 29 30  1  0  0  0
 24 25  2  0  0  0
 25 20  1  0  0  0
 25 26  1  0  0  0
 20 31  1  0  0  0
 20  1  1  0  0  0
 31 32  1  0  0  0
 32 33  1  0  0  0
 33 34  3  0  0  0
  1  2  1  0  0  0
  1 10  2  0  0  0
  2  3  2  0  0  0
  3  4  1  0  0  0
  4  5  1  0  0  0
  4  9  2  0  0  0
  5  6  2  0  0  0
  6  7  1  0  0  0
  7 11  1  0  0  0
  7  8  2  0  0  0
 11 12  1  0  0  0
 11 15  2  0  0  0
 12 13  2  0  0  0
 13 14  1  0  0  0
 14 16  1  0  0  0
 14 15  1  0  0  0
 16 17  1  0  0  0
 17 18  1  0  0  0
 18 19  1  0  0  0
  8  9  1  0  0  0
  9 10  1  0  0  0
M  END
> <minimizedAffinity>
-8.04589

$$$$
