CHEMBL2220486


 36 40  0  0  0  0  0  0  0  0999 V2000
  -28.6931   -9.5230   -8.6323 C   0  0  0  0  0  0  0  0  0  0  0  0
  -28.6249   -9.5809  -10.0256 C   0  0  0  0  0  0  0  0  0  0  0  0
  -27.4638  -10.0456  -10.6004 C   0  0  0  0  0  0  0  0  0  0  0  0
  -26.4225  -10.5103   -9.8898 N   0  0  0  0  0  0  0  0  0  0  0  0
  -26.5163  -10.5042   -8.5504 C   0  0  0  0  0  0  0  0  0  0  0  0
  -25.4260  -10.9602   -7.8378 C   0  0  0  0  0  0  0  0  0  0  0  0
  -25.3007  -10.8677   -6.4310 C   0  0  0  0  0  0  0  0  0  0  0  0
  -26.4326  -10.4563   -5.7138 C   0  0  0  0  0  0  0  0  0  0  0  0
  -27.5788  -10.0500   -6.4353 C   0  0  0  0  0  0  0  0  0  0  0  0
  -27.6238  -10.0225   -7.8523 C   0  0  0  0  0  0  0  0  0  0  0  0
  -26.6174  -10.2603   -4.3758 O   0  0  0  0  0  0  0  0  0  0  0  0
  -27.1898   -9.0612   -3.8887 C   0  0  0  0  0  0  0  0  0  0  0  0
  -29.7931   -9.0073   -7.9693 O   0  0  0  0  0  0  0  0  0  0  0  0
  -29.7366   -4.0303   -5.3001 C   0  0  0  0  0  0  0  0  0  0  0  0
  -30.6127   -3.8730   -4.2135 C   0  0  0  0  0  0  0  0  0  0  0  0
  -31.4166   -4.9221   -3.7933 C   0  0  0  0  0  0  0  0  0  0  0  0
  -31.3708   -6.1395   -4.4778 C   0  0  0  0  0  0  0  0  0  0  0  0
  -30.5239   -6.3277   -5.5774 C   0  0  0  0  0  0  0  0  0  0  0  0
  -30.5230   -7.5581   -6.2570 C   0  0  0  0  0  0  0  0  0  0  0  0
  -29.6952   -7.7742   -7.3593 C   0  0  0  0  0  0  0  0  0  0  0  0
  -28.8044   -6.7805   -7.7475 C   0  0  0  0  0  0  0  0  0  0  0  0
  -28.8123   -5.5424   -7.0945 C   0  0  0  0  0  0  0  0  0  0  0  0
  -29.6727   -5.2722   -6.0071 C   0  0  0  0  0  0  0  0  0  0  0  0
  -27.2657   -1.1569   -5.1056 C   0  0  0  0  0  0  0  0  0  0  0  0
  -28.1130   -2.2762   -4.7761 N   0  0  0  0  0  0  0  0  0  0  0  0
  -28.9356   -2.8395   -5.7356 C   0  0  0  0  0  0  0  0  0  0  0  0
  -29.0199   -2.3902   -6.8721 O   0  0  0  0  0  0  0  0  0  0  0  0
  -27.9505   -2.7631   -3.9049 H   0  0  0  0  0  0  0  0  0  0  0  0
  -24.0664  -11.0881   -5.8221 O   0  0  0  0  0  0  0  0  0  0  0  0
  -23.1066  -10.0329   -6.1219 C   0  0  0  0  0  0  0  0  0  0  0  0
  -21.8186  -10.4905   -6.7965 C   0  0  0  0  0  0  0  0  0  0  0  0
  -20.8273   -9.4447   -7.1127 N   0  0  0  0  0  0  0  0  0  0  0  0
  -21.8221  -11.7802   -7.5828 C   0  0  0  0  0  0  0  0  0  0  0  0
  -21.2159  -11.7648   -6.2132 C   0  0  0  0  0  0  0  0  0  0  0  0
  -21.2872   -8.6201   -7.4962 H   0  0  0  0  0  0  0  0  0  0  0  0
  -20.1684   -9.7642   -7.8208 H   0  0  0  0  0  0  0  0  0  0  0  0
 24 25  1  0  0  0
 25 26  1  0  0  0
 25 28  1  0  0  0
 26 27  2  0  0  0
 26 14  1  0  0  0
 14 15  1  0  0  0
 14 23  2  0  0  0
 15 16  2  0  0  0
 16 17  1  0  0  0
 17 18  2  0  0  0
 18 19  1  0  0  0
 18 23  1  0  0  0
 19 20  2  0  0  0
 20 13  1  0  0  0
 20 21  1  0  0  0
 13  1  1  0  0  0
  1  2  1  0  0  0
  1 10  2  0  0  0
  2  3  2  0  0  0
  3  4  1  0  0  0
  4  5  2  0  0  0
  5  6  1  0  0  0
  5 10  1  0  0  0
  6  7  2  0  0  0
  7 29  1  0  0  0
  7  8  1  0  0  0
 29 30  1  0  0  0
 30 31  1  0  0  0
 31 32  1  0  0  0
 31 33  1  0  0  0
 31 34  1  0  0  0
 32 35  1  0  0  0
 32 36  1  0  0  0
 33 34  1  0  0  0
  8 11  1  0  0  0
  8  9  2  0  0  0
 11 12  1  0  0  0
  9 10  1  0  0  0
 21 22  2  0  0  0
 22 23  1  0  0  0
M  END
> <minimizedAffinity>
-9.30511

$$$$
