CHEMBL4102438


 36 41  0  0  0  0  0  0  0  0999 V2000
  -15.5571   -1.4857  -11.5817 O   0  0  0  0  0  0  0  0  0  0  0  0
  -15.7029   -2.1553  -12.5982 C   0  0  0  0  0  0  0  0  0  0  0  0
  -15.9335   -1.7611  -13.8902 N   0  0  0  0  0  0  0  0  0  0  0  0
  -15.7944   -3.5532  -12.5141 N   0  0  0  0  0  0  0  0  0  0  0  0
  -16.5958   -4.2648  -11.6412 C   0  0  0  0  0  0  0  0  0  0  0  0
  -16.4933   -5.6021  -11.9636 C   0  0  0  0  0  0  0  0  0  0  0  0
  -15.5102   -5.7343  -12.9761 C   0  0  0  0  0  0  0  0  0  0  0  0
  -14.9185   -6.8261  -13.6515 C   0  0  0  0  0  0  0  0  0  0  0  0
  -13.8900   -6.5870  -14.5704 C   0  0  0  0  0  0  0  0  0  0  0  0
  -13.4754   -5.2897  -14.8663 C   0  0  0  0  0  0  0  0  0  0  0  0
  -14.0461   -4.1968  -14.2207 C   0  0  0  0  0  0  0  0  0  0  0  0
  -15.0745   -4.4424  -13.2922 C   0  0  0  0  0  0  0  0  0  0  0  0
  -16.5723   -2.3294  -14.4329 H   0  0  0  0  0  0  0  0  0  0  0  0
  -15.9542   -0.4262  -14.2082 C   0  0  0  0  0  0  0  0  0  0  0  0
  -17.0409    0.3163  -14.7053 C   0  0  0  0  0  0  0  0  0  0  0  0
  -16.5302    1.5802  -14.9112 C   0  0  0  0  0  0  0  0  0  0  0  0
  -15.2257    1.5803  -14.5137 O   0  0  0  0  0  0  0  0  0  0  0  0
  -14.8913    0.3442  -13.9950 N   0  0  0  0  0  0  0  0  0  0  0  0
  -17.2555    2.8160  -15.4759 C   0  0  0  0  0  0  0  0  0  0  0  0
  -16.8299    3.2565  -16.8869 C   0  0  0  0  0  0  0  0  0  0  0  0
  -16.4071    4.0748  -15.7211 C   0  0  0  0  0  0  0  0  0  0  0  0
  -18.7080    3.0042  -15.0792 C   0  0  0  0  0  0  0  0  0  0  0  0
  -19.5390    2.0718  -15.5963 F   0  0  0  0  0  0  0  0  0  0  0  0
  -18.8431    2.9516  -13.7298 F   0  0  0  0  0  0  0  0  0  0  0  0
  -19.1661    4.2168  -15.4803 F   0  0  0  0  0  0  0  0  0  0  0  0
  -13.3642   -7.6683  -15.2255 O   0  0  0  0  0  0  0  0  0  0  0  0
  -13.6493   -7.8349  -16.5771 C   0  0  0  0  0  0  0  0  0  0  0  0
  -13.9930   -6.7914  -17.3648 N   0  0  0  0  0  0  0  0  0  0  0  0
  -14.0265   -7.0259  -18.6926 C   0  0  0  0  0  0  0  0  0  0  0  0
  -13.6852   -8.1696  -19.3092 N   0  0  0  0  0  0  0  0  0  0  0  0
  -13.3462   -9.1506  -18.4662 C   0  0  0  0  0  0  0  0  0  0  0  0
  -13.3718   -9.0586  -17.0967 C   0  0  0  0  0  0  0  0  0  0  0  0
  -12.8589  -10.3070  -16.4950 C   0  0  0  0  0  0  0  0  0  0  0  0
  -11.9230  -10.8112  -17.5288 N   0  0  0  0  0  0  0  0  0  0  0  0
  -12.5775  -10.4024  -18.8164 C   0  0  0  0  0  0  0  0  0  0  0  0
  -11.0840  -10.2319  -17.4463 H   0  0  0  0  0  0  0  0  0  0  0  0
  1  2  2  0  0  0
  2  3  1  0  0  0
  2  4  1  0  0  0
  3 14  1  0  0  0
  3 13  1  0  0  0
 14 15  1  0  0  0
 14 18  2  0  0  0
 15 16  2  0  0  0
 16 19  1  0  0  0
 16 17  1  0  0  0
 19 22  1  0  0  0
 19 20  1  0  0  0
 19 21  1  0  0  0
 22 23  1  0  0  0
 22 24  1  0  0  0
 22 25  1  0  0  0
 20 21  1  0  0  0
 17 18  1  0  0  0
  4  5  1  0  0  0
  4 12  1  0  0  0
  5  6  2  0  0  0
  6  7  1  0  0  0
  7  8  1  0  0  0
  7 12  2  0  0  0
  8  9  2  0  0  0
  9 26  1  0  0  0
  9 10  1  0  0  0
 26 27  1  0  0  0
 27 28  1  0  0  0
 27 32  2  0  0  0
 28 29  2  0  0  0
 29 30  1  0  0  0
 30 31  2  0  0  0
 31 32  1  0  0  0
 31 35  1  0  0  0
 32 33  1  0  0  0
 33 34  1  0  0  0
 34 35  1  0  0  0
 34 36  1  0  0  0
 10 11  2  0  0  0
 11 12  1  0  0  0
M  END
> <minimizedAffinity>
-9.07665

$$$$
