CHEMBL4101778


 33 36  0  0  0  0  0  0  0  0999 V2000
  -14.7738   -3.6283  -12.7610 C   0  0  0  0  0  0  0  0  0  0  0  0
  -14.2343   -2.9171  -13.8386 C   0  0  0  0  0  0  0  0  0  0  0  0
  -14.5891   -1.5817  -14.0857 C   0  0  0  0  0  0  0  0  0  0  0  0
  -15.4396   -0.8909  -13.2153 C   0  0  0  0  0  0  0  0  0  0  0  0
  -15.8710   -1.5550  -12.0749 C   0  0  0  0  0  0  0  0  0  0  0  0
  -15.5650   -2.9014  -11.8637 C   0  0  0  0  0  0  0  0  0  0  0  0
  -12.0898   -3.6481  -10.4337 C   0  0  0  0  0  0  0  0  0  0  0  0
  -12.4939   -5.0413  -10.7610 C   0  0  0  0  0  0  0  0  0  0  0  0
  -11.8155   -6.0348  -10.1625 N   0  0  0  0  0  0  0  0  0  0  0  0
  -12.3548   -7.1480  -10.6811 N   0  0  0  0  0  0  0  0  0  0  0  0
  -13.3494   -6.9146  -11.5742 C   0  0  0  0  0  0  0  0  0  0  0  0
  -14.0197   -7.8765  -12.2387 N   0  0  0  0  0  0  0  0  0  0  0  0
  -14.9505   -7.3841  -13.0749 C   0  0  0  0  0  0  0  0  0  0  0  0
  -15.2346   -6.0389  -13.2474 C   0  0  0  0  0  0  0  0  0  0  0  0
  -14.5160   -5.0557  -12.5321 C   0  0  0  0  0  0  0  0  0  0  0  0
  -13.5092   -5.5339  -11.6523 C   0  0  0  0  0  0  0  0  0  0  0  0
  -11.9966   -8.0500  -10.3993 H   0  0  0  0  0  0  0  0  0  0  0  0
  -15.8170    0.4195  -13.5871 N   0  0  0  0  0  0  0  0  0  0  0  0
  -16.1259    1.0030  -12.8171 H   0  0  0  0  0  0  0  0  0  0  0  0
  -15.8759    1.0710  -14.8192 C   0  0  0  0  0  0  0  0  0  0  0  0
  -14.7690    2.1346  -15.4951 S   0  0  0  0  0  0  0  0  0  0  0  0
  -17.1126    0.7805  -15.4181 N   0  0  0  0  0  0  0  0  0  0  0  0
  -17.2088   -0.1964  -15.6736 H   0  0  0  0  0  0  0  0  0  0  0  0
  -18.3196    1.4797  -15.2106 C   0  0  0  0  0  0  0  0  0  0  0  0
  -18.3858    2.8314  -15.5491 C   0  0  0  0  0  0  0  0  0  0  0  0
  -19.5763    3.5352  -15.3680 C   0  0  0  0  0  0  0  0  0  0  0  0
  -20.6983    2.8958  -14.8328 C   0  0  0  0  0  0  0  0  0  0  0  0
  -20.6371    1.5469  -14.4665 C   0  0  0  0  0  0  0  0  0  0  0  0
  -19.4318    0.8554  -14.6390 C   0  0  0  0  0  0  0  0  0  0  0  0
  -21.8302    0.8168  -13.9187 C   0  0  0  0  0  0  0  0  0  0  0  0
  -22.1326   -0.3245  -14.6008 F   0  0  0  0  0  0  0  0  0  0  0  0
  -21.6661    0.4388  -12.6205 F   0  0  0  0  0  0  0  0  0  0  0  0
  -22.9660    1.5717  -13.9461 F   0  0  0  0  0  0  0  0  0  0  0  0
  7  8  1  0  0  0
  8  9  2  0  0  0
  8 16  1  0  0  0
  9 10  1  0  0  0
 10 11  1  0  0  0
 10 17  1  0  0  0
 11 12  1  0  0  0
 11 16  2  0  0  0
 12 13  2  0  0  0
 13 14  1  0  0  0
 14 15  2  0  0  0
 15  1  1  0  0  0
 15 16  1  0  0  0
  1  2  1  0  0  0
  1  6  2  0  0  0
  2  3  2  0  0  0
  3  4  1  0  0  0
  4 18  1  0  0  0
  4  5  2  0  0  0
 18 20  1  0  0  0
 18 19  1  0  0  0
 20 21  2  0  0  0
 20 22  1  0  0  0
 22 24  1  0  0  0
 22 23  1  0  0  0
 24 25  1  0  0  0
 24 29  2  0  0  0
 25 26  2  0  0  0
 26 27  1  0  0  0
 27 28  2  0  0  0
 28 30  1  0  0  0
 28 29  1  0  0  0
 30 31  1  0  0  0
 30 32  1  0  0  0
 30 33  1  0  0  0
  5  6  1  0  0  0
M  END
> <minimizedAffinity>
-9.34224

$$$$
