CHEMBL2029375


 43 47  0  0  0  0  0  0  0  0999 V2000
  -27.5808  -10.0077   -3.8963 C   0  0  0  0  0  0  0  0  0  0  0  0
  -26.9210  -10.6838   -3.1024 O   0  0  0  0  0  0  0  0  0  0  0  0
  -27.9532   -8.7390   -3.5132 N   0  0  0  0  0  0  0  0  0  0  0  0
  -27.4319   -8.4426   -2.6945 H   0  0  0  0  0  0  0  0  0  0  0  0
  -29.3316  -11.1240   -6.9470 N   0  0  0  0  0  0  0  0  0  0  0  0
  -29.2073  -10.9940   -5.5542 C   0  0  0  0  0  0  0  0  0  0  0  0
  -30.3211  -11.2887   -4.5999 C   0  0  0  0  0  0  0  0  0  0  0  0
  -27.9785  -10.5691   -5.1982 C   0  0  0  0  0  0  0  0  0  0  0  0
  -27.1348  -10.7841   -6.4030 C   0  0  0  0  0  0  0  0  0  0  0  0
  -25.9142  -10.7523   -6.4115 O   0  0  0  0  0  0  0  0  0  0  0  0
  -28.0288  -10.9328   -7.4686 N   0  0  0  0  0  0  0  0  0  0  0  0
  -27.7763  -10.5677   -8.8106 C   0  0  0  0  0  0  0  0  0  0  0  0
  -28.1160  -11.4375   -9.8528 C   0  0  0  0  0  0  0  0  0  0  0  0
  -27.9251  -11.0641  -11.1857 C   0  0  0  0  0  0  0  0  0  0  0  0
  -27.3632   -9.8275  -11.4924 C   0  0  0  0  0  0  0  0  0  0  0  0
  -26.9794   -8.9685  -10.4664 C   0  0  0  0  0  0  0  0  0  0  0  0
  -27.1850   -9.3374   -9.1338 C   0  0  0  0  0  0  0  0  0  0  0  0
  -30.1507  -12.1581   -7.6114 C   0  0  0  0  0  0  0  0  0  0  0  0
  -31.4398  -11.6120   -8.2595 C   0  0  0  0  0  0  0  0  0  0  0  0
  -32.5922  -11.9539   -7.4891 O   0  0  0  0  0  0  0  0  0  0  0  0
  -32.4672  -11.6265   -6.5832 H   0  0  0  0  0  0  0  0  0  0  0  0
  -32.4040   -9.3681   -7.5719 C   0  0  0  0  0  0  0  0  0  0  0  0
  -31.3453  -10.0881   -8.3928 C   0  0  0  0  0  0  0  0  0  0  0  0
  -28.7645   -7.7612   -4.1283 C   0  0  0  0  0  0  0  0  0  0  0  0
  -28.5878   -7.2979   -5.4327 C   0  0  0  0  0  0  0  0  0  0  0  0
  -29.1842   -6.0991   -5.8486 C   0  0  0  0  0  0  0  0  0  0  0  0
  -30.0642   -5.4227   -5.0048 C   0  0  0  0  0  0  0  0  0  0  0  0
  -30.4424   -6.0474   -3.8169 C   0  0  0  0  0  0  0  0  0  0  0  0
  -31.4057   -5.5302   -3.0406 F   0  0  0  0  0  0  0  0  0  0  0  0
  -29.7810   -7.1902   -3.3614 C   0  0  0  0  0  0  0  0  0  0  0  0
  -30.5221   -4.2049   -5.4521 O   0  0  0  0  0  0  0  0  0  0  0  0
  -29.7167   -3.0798   -5.3770 C   0  0  0  0  0  0  0  0  0  0  0  0
  -29.5379   -2.3398   -4.2099 C   0  0  0  0  0  0  0  0  0  0  0  0
  -28.7795   -1.1899   -4.2807 C   0  0  0  0  0  0  0  0  0  0  0  0
  -28.1342   -0.7845   -5.3936 N   0  0  0  0  0  0  0  0  0  0  0  0
  -28.2194   -1.5501   -6.4906 C   0  0  0  0  0  0  0  0  0  0  0  0
  -27.5105   -1.1688   -7.6200 C   0  0  0  0  0  0  0  0  0  0  0  0
  -27.5162   -1.9221   -8.7952 C   0  0  0  0  0  0  0  0  0  0  0  0
  -28.2768   -3.0850   -8.8519 C   0  0  0  0  0  0  0  0  0  0  0  0
  -29.0218   -3.4784   -7.7377 C   0  0  0  0  0  0  0  0  0  0  0  0
  -29.0036   -2.7250   -6.5448 C   0  0  0  0  0  0  0  0  0  0  0  0
  -26.7412   -1.4139   -9.7997 O   0  0  0  0  0  0  0  0  0  0  0  0
  -27.2274   -1.5539  -11.1277 C   0  0  0  0  0  0  0  0  0  0  0  0
 22 23  1  0  0  0
 19 18  1  0  0  0
 19 20  1  0  0  0
 19 23  1  0  0  0
 20 21  1  0  0  0
 18  5  1  0  0  0
  5  6  1  0  0  0
  5 11  1  0  0  0
  6  7  1  0  0  0
  6  8  2  0  0  0
  8  1  1  0  0  0
  8  9  1  0  0  0
  1  2  2  0  0  0
  1  3  1  0  0  0
  3 24  1  0  0  0
  3  4  1  0  0  0
 24 25  1  0  0  0
 24 30  2  0  0  0
 25 26  2  0  0  0
 26 27  1  0  0  0
 27 31  1  0  0  0
 27 28  2  0  0  0
 31 32  1  0  0  0
 32 33  1  0  0  0
 32 41  2  0  0  0
 33 34  2  0  0  0
 34 35  1  0  0  0
 35 36  2  0  0  0
 36 37  1  0  0  0
 36 41  1  0  0  0
 37 38  2  0  0  0
 38 42  1  0  0  0
 38 39  1  0  0  0
 42 43  1  0  0  0
 39 40  2  0  0  0
 40 41  1  0  0  0
 28 29  1  0  0  0
 28 30  1  0  0  0
  9 10  2  0  0  0
  9 11  1  0  0  0
 11 12  1  0  0  0
 12 13  1  0  0  0
 12 17  2  0  0  0
 13 14  2  0  0  0
 14 15  1  0  0  0
 15 16  2  0  0  0
 16 17  1  0  0  0
M  END
> <minimizedAffinity>
-9.00045

$$$$
