CHEMBL329142


 22 25  0  0  0  0  0  0  0  0999 V2000
  -29.8988   -2.9361   -4.6381 C   0  0  0  0  0  0  0  0  0  0  0  0
  -30.4352   -3.4820   -3.4512 C   0  0  0  0  0  0  0  0  0  0  0  0
  -30.7843   -4.7627   -3.5665 N   0  0  0  0  0  0  0  0  0  0  0  0
  -30.4791   -5.0766   -4.8473 N   0  0  0  0  0  0  0  0  0  0  0  0
  -30.6630   -6.3038   -5.4753 C   0  0  0  0  0  0  0  0  0  0  0  0
  -30.3183   -6.4672   -6.7623 C   0  0  0  0  0  0  0  0  0  0  0  0
  -29.7431   -5.2524   -7.4156 C   0  0  0  0  0  0  0  0  0  0  0  0
  -29.5600   -4.0928   -6.8582 N   0  0  0  0  0  0  0  0  0  0  0  0
  -29.9322   -3.9870   -5.5406 C   0  0  0  0  0  0  0  0  0  0  0  0
  -30.8080    1.8491   -6.4337 Cl  0  0  0  0  0  0  0  0  0  0  0  0
  -29.7675    0.6666   -5.7382 C   0  0  0  0  0  0  0  0  0  0  0  0
  -28.4462    0.9973   -5.4489 C   0  0  0  0  0  0  0  0  0  0  0  0
  -27.6046    0.0394   -4.8878 C   0  0  0  0  0  0  0  0  0  0  0  0
  -28.0883   -1.2449   -4.6192 C   0  0  0  0  0  0  0  0  0  0  0  0
  -29.4193   -1.5873   -4.9080 C   0  0  0  0  0  0  0  0  0  0  0  0
  -30.2539   -0.6141   -5.4746 C   0  0  0  0  0  0  0  0  0  0  0  0
  -30.5039   -7.7238   -7.4803 C   0  0  0  0  0  0  0  0  0  0  0  0
  -31.7202   -8.4030   -7.4026 C   0  0  0  0  0  0  0  0  0  0  0  0
  -31.8485   -9.5961   -8.0932 C   0  0  0  0  0  0  0  0  0  0  0  0
  -30.8629  -10.1397   -8.8378 N   0  0  0  0  0  0  0  0  0  0  0  0
  -29.6952   -9.4649   -8.8945 C   0  0  0  0  0  0  0  0  0  0  0  0
  -29.4677   -8.2659   -8.2404 C   0  0  0  0  0  0  0  0  0  0  0  0
 10 11  1  0  0  0
 11 12  1  0  0  0
 11 16  2  0  0  0
 12 13  2  0  0  0
 13 14  1  0  0  0
 14 15  2  0  0  0
 15  1  1  0  0  0
 15 16  1  0  0  0
  1  2  1  0  0  0
  1  9  2  0  0  0
  2  3  2  0  0  0
  3  4  1  0  0  0
  4  5  1  0  0  0
  4  9  1  0  0  0
  5  6  2  0  0  0
  6 17  1  0  0  0
  6  7  1  0  0  0
 17 18  1  0  0  0
 17 22  2  0  0  0
 18 19  2  0  0  0
 19 20  1  0  0  0
 20 21  2  0  0  0
 21 22  1  0  0  0
  7  8  2  0  0  0
  8  9  1  0  0  0
M  END
> <minimizedAffinity>
-9.01387

$$$$
