CHEMBL194872


 38 41  0  0  0  0  0  0  0  0999 V2000
  -12.5113   -2.8040  -12.5360 C   0  0  0  0  0  0  0  0  0  0  0  0
  -11.2232   -2.7316  -12.7357 N   0  0  0  0  0  0  0  0  0  0  0  0
  -10.6967   -1.7397  -13.5101 C   0  0  0  0  0  0  0  0  0  0  0  0
  -11.3528   -0.8127  -14.1212 N   0  0  0  0  0  0  0  0  0  0  0  0
  -12.6790   -0.8786  -13.9390 N   0  0  0  0  0  0  0  0  0  0  0  0
  -13.5604   -0.0199  -14.5207 C   0  0  0  0  0  0  0  0  0  0  0  0
  -14.8251   -0.3605  -14.1067 C   0  0  0  0  0  0  0  0  0  0  0  0
  -14.7175   -1.5292  -13.2596 C   0  0  0  0  0  0  0  0  0  0  0  0
  -13.3432   -1.8021  -13.1704 C   0  0  0  0  0  0  0  0  0  0  0  0
  -16.0386    0.4018  -14.5396 C   0  0  0  0  0  0  0  0  0  0  0  0
  -16.2097    0.9198  -15.7405 N   0  0  0  0  0  0  0  0  0  0  0  0
  -17.4292    1.5532  -15.7541 N   0  0  0  0  0  0  0  0  0  0  0  0
  -17.9321    1.3925  -14.5521 C   0  0  0  0  0  0  0  0  0  0  0  0
  -17.1309    0.6499  -13.7307 O   0  0  0  0  0  0  0  0  0  0  0  0
  -19.2066    1.8911  -14.0140 C   0  0  0  0  0  0  0  0  0  0  0  0
  -20.3864    1.3627  -14.7958 C   0  0  0  0  0  0  0  0  0  0  0  0
  -21.5197    1.2530  -14.0731 F   0  0  0  0  0  0  0  0  0  0  0  0
  -20.6573    2.1628  -15.8538 F   0  0  0  0  0  0  0  0  0  0  0  0
  -20.1093    0.1324  -15.2926 F   0  0  0  0  0  0  0  0  0  0  0  0
  -15.9133   -2.2649  -12.6825 C   0  0  0  0  0  0  0  0  0  0  0  0
  -16.2354   -3.5715  -13.4064 C   0  0  0  0  0  0  0  0  0  0  0  0
  -15.8817   -2.3985  -11.1612 C   0  0  0  0  0  0  0  0  0  0  0  0
  -12.9839   -3.8050  -11.7182 N   0  0  0  0  0  0  0  0  0  0  0  0
  -13.4105   -3.5526  -10.8419 H   0  0  0  0  0  0  0  0  0  0  0  0
  -13.2791   -6.9532  -13.7248 C   0  0  0  0  0  0  0  0  0  0  0  0
  -13.0517   -5.6084  -13.3956 C   0  0  0  0  0  0  0  0  0  0  0  0
  -13.2321   -5.1435  -12.0877 C   0  0  0  0  0  0  0  0  0  0  0  0
  -13.6238   -6.0741  -11.1119 C   0  0  0  0  0  0  0  0  0  0  0  0
  -13.7977   -5.6655   -9.8455 F   0  0  0  0  0  0  0  0  0  0  0  0
  -13.8340   -7.4161  -11.4165 C   0  0  0  0  0  0  0  0  0  0  0  0
  -13.6594   -7.8472  -12.7260 C   0  0  0  0  0  0  0  0  0  0  0  0
  -13.8729   -9.1412  -13.0079 F   0  0  0  0  0  0  0  0  0  0  0  0
  -14.2300   -7.2605  -15.9395 N   0  0  0  0  0  0  0  0  0  0  0  0
  -13.1114   -7.3568  -15.1418 C   0  0  0  0  0  0  0  0  0  0  0  0
  -12.0213   -7.7852  -15.5093 O   0  0  0  0  0  0  0  0  0  0  0  0
  -14.9794   -6.6139  -15.7129 H   0  0  0  0  0  0  0  0  0  0  0  0
  -13.7571   -6.1859  -17.9188 C   0  0  0  0  0  0  0  0  0  0  0  0
  -14.0009   -7.4588  -17.3214 O   0  0  0  0  0  0  0  0  0  0  0  0
 37 38  1  0  0  0
 38 33  1  0  0  0
 33 34  1  0  0  0
 33 36  1  0  0  0
 34 35  2  0  0  0
 34 25  1  0  0  0
 25 26  1  0  0  0
 25 31  2  0  0  0
 26 27  2  0  0  0
 27 23  1  0  0  0
 27 28  1  0  0  0
 23  1  1  0  0  0
 23 24  1  0  0  0
  1  2  2  0  0  0
  1  9  1  0  0  0
  2  3  1  0  0  0
  3  4  2  0  0  0
  4  5  1  0  0  0
  5  6  1  0  0  0
  5  9  1  0  0  0
  6  7  2  0  0  0
  7 10  1  0  0  0
  7  8  1  0  0  0
 10 11  2  0  0  0
 10 14  1  0  0  0
 11 12  1  0  0  0
 12 13  2  0  0  0
 13 15  1  0  0  0
 13 14  1  0  0  0
 15 16  1  0  0  0
 16 17  1  0  0  0
 16 18  1  0  0  0
 16 19  1  0  0  0
  8 20  1  0  0  0
  8  9  2  0  0  0
 20 21  1  0  0  0
 20 22  1  0  0  0
 28 29  1  0  0  0
 28 30  2  0  0  0
 30 31  1  0  0  0
 31 32  1  0  0  0
M  END
> <minimizedAffinity>
-8.08799

$$$$
