CHEMBL370325


 35 38  0  0  0  0  0  0  0  0999 V2000
  -12.8677   -3.7914  -12.0124 C   0  0  0  0  0  0  0  0  0  0  0  0
  -14.2299   -3.9357  -12.2804 C   0  0  0  0  0  0  0  0  0  0  0  0
  -14.8940   -3.0821  -13.1680 C   0  0  0  0  0  0  0  0  0  0  0  0
  -14.2549   -1.9749  -13.7191 C   0  0  0  0  0  0  0  0  0  0  0  0
  -12.9155   -1.7638  -13.3921 C   0  0  0  0  0  0  0  0  0  0  0  0
  -12.2231   -2.6838  -12.5807 C   0  0  0  0  0  0  0  0  0  0  0  0
  -12.2746   -3.4180   -8.9203 C   0  0  0  0  0  0  0  0  0  0  0  0
  -11.9484   -4.5800   -9.8093 C   0  0  0  0  0  0  0  0  0  0  0  0
  -11.1816   -5.9172   -9.0647 S   0  0  0  0  0  0  0  0  0  0  0  0
  -11.1821   -6.8177  -10.4953 C   0  0  0  0  0  0  0  0  0  0  0  0
  -10.6966   -8.0699  -10.4709 N   0  0  0  0  0  0  0  0  0  0  0  0
  -10.7572   -8.6639  -11.6569 C   0  0  0  0  0  0  0  0  0  0  0  0
  -11.2007   -8.1336  -12.8001 N   0  0  0  0  0  0  0  0  0  0  0  0
  -11.6614   -6.8676  -12.7969 C   0  0  0  0  0  0  0  0  0  0  0  0
  -12.0529   -6.4120  -14.0470 N   0  0  0  0  0  0  0  0  0  0  0  0
  -11.6998   -6.1313  -11.5850 C   0  0  0  0  0  0  0  0  0  0  0  0
  -12.1744   -4.7930  -11.1720 C   0  0  0  0  0  0  0  0  0  0  0  0
  -11.7533   -7.0569  -14.7701 H   0  0  0  0  0  0  0  0  0  0  0  0
  -11.8775   -5.4329  -14.2278 H   0  0  0  0  0  0  0  0  0  0  0  0
  -14.8867   -1.0740  -14.6127 N   0  0  0  0  0  0  0  0  0  0  0  0
  -15.8960   -0.1953  -14.2872 C   0  0  0  0  0  0  0  0  0  0  0  0
  -16.3337    0.0043  -13.1582 O   0  0  0  0  0  0  0  0  0  0  0  0
  -16.4256    0.4210  -15.4154 N   0  0  0  0  0  0  0  0  0  0  0  0
  -14.5094   -1.0109  -15.5482 H   0  0  0  0  0  0  0  0  0  0  0  0
  -16.4386   -0.1641  -16.2387 H   0  0  0  0  0  0  0  0  0  0  0  0
  -17.4733    1.3605  -15.2965 C   0  0  0  0  0  0  0  0  0  0  0  0
  -17.2118    2.6963  -15.5978 C   0  0  0  0  0  0  0  0  0  0  0  0
  -18.2450    3.6341  -15.5679 C   0  0  0  0  0  0  0  0  0  0  0  0
  -19.5322    3.2490  -15.1833 C   0  0  0  0  0  0  0  0  0  0  0  0
  -19.8024    1.9205  -14.8297 C   0  0  0  0  0  0  0  0  0  0  0  0
  -18.7637    0.9774  -14.9059 C   0  0  0  0  0  0  0  0  0  0  0  0
  -21.1744    1.4909  -14.3728 C   0  0  0  0  0  0  0  0  0  0  0  0
  -21.7434    0.5539  -15.1838 F   0  0  0  0  0  0  0  0  0  0  0  0
  -21.1796    0.9524  -13.1244 F   0  0  0  0  0  0  0  0  0  0  0  0
  -22.0590    2.5290  -14.3381 F   0  0  0  0  0  0  0  0  0  0  0  0
  7  8  1  0  0  0
  8  9  1  0  0  0
  8 17  2  0  0  0
  9 10  1  0  0  0
 10 11  1  0  0  0
 10 16  2  0  0  0
 11 12  2  0  0  0
 12 13  1  0  0  0
 13 14  2  0  0  0
 14 15  1  0  0  0
 14 16  1  0  0  0
 15 18  1  0  0  0
 15 19  1  0  0  0
 16 17  1  0  0  0
 17  1  1  0  0  0
  1  2  1  0  0  0
  1  6  2  0  0  0
  2  3  2  0  0  0
  3  4  1  0  0  0
  4 20  1  0  0  0
  4  5  2  0  0  0
 20 21  1  0  0  0
 20 24  1  0  0  0
 21 22  2  0  0  0
 21 23  1  0  0  0
 23 26  1  0  0  0
 23 25  1  0  0  0
 26 27  1  0  0  0
 26 31  2  0  0  0
 27 28  2  0  0  0
 28 29  1  0  0  0
 29 30  2  0  0  0
 30 32  1  0  0  0
 30 31  1  0  0  0
 32 33  1  0  0  0
 32 34  1  0  0  0
 32 35  1  0  0  0
  5  6  1  0  0  0
M  END
> <minimizedAffinity>
-9.09203

$$$$
