CHEMBL1977041


 35 38  0  0  0  0  0  0  0  0999 V2000
  -17.3386    1.4586  -14.7442 C   0  0  0  0  0  0  0  0  0  0  0  0
  -17.9170    0.3012  -15.2641 C   0  0  0  0  0  0  0  0  0  0  0  0
  -19.2988    0.1656  -15.3498 C   0  0  0  0  0  0  0  0  0  0  0  0
  -20.1564    1.1419  -14.8457 C   0  0  0  0  0  0  0  0  0  0  0  0
  -19.5886    2.2938  -14.2941 C   0  0  0  0  0  0  0  0  0  0  0  0
  -18.1908    2.4679  -14.2829 C   0  0  0  0  0  0  0  0  0  0  0  0
  -14.9757    0.7792  -13.9005 C   0  0  0  0  0  0  0  0  0  0  0  0
  -15.8797    1.5492  -14.7315 C   0  0  0  0  0  0  0  0  0  0  0  0
  -15.1104    2.5087  -15.3847 C   0  0  0  0  0  0  0  0  0  0  0  0
  -15.3653    3.5896  -16.2919 C   0  0  0  0  0  0  0  0  0  0  0  0
  -16.5924    3.9828  -16.7417 N   0  0  0  0  0  0  0  0  0  0  0  0
  -14.3616    4.2906  -16.7302 N   0  0  0  0  0  0  0  0  0  0  0  0
  -13.0987    3.9791  -16.2988 C   0  0  0  0  0  0  0  0  0  0  0  0
  -12.7738    3.0510  -15.4596 N   0  0  0  0  0  0  0  0  0  0  0  0
  -13.8085    2.3248  -15.0048 N   0  0  0  0  0  0  0  0  0  0  0  0
  -13.7082    1.3184  -14.0781 C   0  0  0  0  0  0  0  0  0  0  0  0
  -12.4118    0.9398  -13.4486 C   0  0  0  0  0  0  0  0  0  0  0  0
  -17.3380    3.9208  -16.0583 H   0  0  0  0  0  0  0  0  0  0  0  0
  -16.5552    4.8861  -17.1999 H   0  0  0  0  0  0  0  0  0  0  0  0
  -15.3100   -0.3424  -13.0184 C   0  0  0  0  0  0  0  0  0  0  0  0
  -15.8106   -0.2027  -11.9090 O   0  0  0  0  0  0  0  0  0  0  0  0
  -15.8024   -2.6284  -13.1705 C   0  0  0  0  0  0  0  0  0  0  0  0
  -14.9385   -1.5514  -13.5370 O   0  0  0  0  0  0  0  0  0  0  0  0
  -21.5658    1.0175  -14.8925 N   0  0  0  0  0  0  0  0  0  0  0  0
  -22.3290    0.3383  -13.9598 C   0  0  0  0  0  0  0  0  0  0  0  0
  -21.8932   -0.1711  -12.9306 O   0  0  0  0  0  0  0  0  0  0  0  0
  -23.6652    0.2407  -14.3286 N   0  0  0  0  0  0  0  0  0  0  0  0
  -22.0588    1.5256  -15.6101 H   0  0  0  0  0  0  0  0  0  0  0  0
  -23.8056    0.1150  -15.3201 H   0  0  0  0  0  0  0  0  0  0  0  0
  -24.5238   -0.5022  -13.4834 C   0  0  0  0  0  0  0  0  0  0  0  0
  -25.3817   -1.4803  -14.0076 C   0  0  0  0  0  0  0  0  0  0  0  0
  -26.3600   -2.0643  -13.2090 C   0  0  0  0  0  0  0  0  0  0  0  0
  -26.4921   -1.6715  -11.8806 C   0  0  0  0  0  0  0  0  0  0  0  0
  -25.6102   -0.7332  -11.3387 C   0  0  0  0  0  0  0  0  0  0  0  0
  -24.6079   -0.1660  -12.1309 C   0  0  0  0  0  0  0  0  0  0  0  0
 22 23  1  0  0  0
 23 20  1  0  0  0
 20 21  2  0  0  0
 20  7  1  0  0  0
  7  8  1  0  0  0
  7 16  2  0  0  0
  8  1  1  0  0  0
  8  9  2  0  0  0
  1  2  1  0  0  0
  1  6  2  0  0  0
  2  3  2  0  0  0
  3  4  1  0  0  0
  4 24  1  0  0  0
  4  5  2  0  0  0
 24 25  1  0  0  0
 24 28  1  0  0  0
 25 26  2  0  0  0
 25 27  1  0  0  0
 27 30  1  0  0  0
 27 29  1  0  0  0
 30 31  1  0  0  0
 30 35  2  0  0  0
 31 32  2  0  0  0
 32 33  1  0  0  0
 33 34  2  0  0  0
 34 35  1  0  0  0
  5  6  1  0  0  0
  9 10  1  0  0  0
  9 15  1  0  0  0
 10 11  1  0  0  0
 10 12  2  0  0  0
 11 18  1  0  0  0
 11 19  1  0  0  0
 12 13  1  0  0  0
 13 14  2  0  0  0
 14 15  1  0  0  0
 15 16  1  0  0  0
 16 17  1  0  0  0
M  END
> <minimizedAffinity>
-8.85016

$$$$
