CHEMBL184143


 31 34  0  0  0  0  0  0  0  0999 V2000
  -20.3999    2.6300  -14.9133 C   0  0  0  0  0  0  0  0  0  0  0  0
  -21.5651    2.9430  -14.2080 C   0  0  0  0  0  0  0  0  0  0  0  0
  -22.4675    1.9408  -13.8383 C   0  0  0  0  0  0  0  0  0  0  0  0
  -22.1938    0.5937  -14.1065 C   0  0  0  0  0  0  0  0  0  0  0  0
  -21.0506    0.3109  -14.8869 C   0  0  0  0  0  0  0  0  0  0  0  0
  -20.1783    1.3184  -15.3186 C   0  0  0  0  0  0  0  0  0  0  0  0
  -22.9298   -0.5094  -13.4479 C   0  0  0  0  0  0  0  0  0  0  0  0
  -22.7224   -0.8232  -12.0840 C   0  0  0  0  0  0  0  0  0  0  0  0
  -23.6360   -1.6003  -11.3399 C   0  0  0  0  0  0  0  0  0  0  0  0
  -24.8339   -2.0093  -11.9126 C   0  0  0  0  0  0  0  0  0  0  0  0
  -25.0168   -1.7049  -13.2464 C   0  0  0  0  0  0  0  0  0  0  0  0
  -24.0514   -1.0841  -14.0418 C   0  0  0  0  0  0  0  0  0  0  0  0
  -24.6064   -0.9953  -15.4240 C   0  0  0  0  0  0  0  0  0  0  0  0
  -26.0202   -0.9852  -15.1874 N   0  0  0  0  0  0  0  0  0  0  0  0
  -26.3053   -1.5097  -13.9350 C   0  0  0  0  0  0  0  0  0  0  0  0
  -27.3941   -1.5636  -13.4028 O   0  0  0  0  0  0  0  0  0  0  0  0
  -26.5416   -0.1319  -15.3807 H   0  0  0  0  0  0  0  0  0  0  0  0
  -17.2643    4.2666  -15.6818 N   0  0  0  0  0  0  0  0  0  0  0  0
  -18.1359    3.1886  -15.5304 C   0  0  0  0  0  0  0  0  0  0  0  0
  -17.8515    2.0206  -15.7387 O   0  0  0  0  0  0  0  0  0  0  0  0
  -19.4028    3.6109  -15.1389 N   0  0  0  0  0  0  0  0  0  0  0  0
  -17.5669    5.1361  -15.3000 H   0  0  0  0  0  0  0  0  0  0  0  0
  -19.7103    4.4594  -15.5935 H   0  0  0  0  0  0  0  0  0  0  0  0
  -14.3431    4.7571  -17.9136 C   0  0  0  0  0  0  0  0  0  0  0  0
  -13.3310    4.0698  -17.2415 C   0  0  0  0  0  0  0  0  0  0  0  0
  -13.6154    3.4348  -16.0387 C   0  0  0  0  0  0  0  0  0  0  0  0
  -14.9067    3.4943  -15.5099 C   0  0  0  0  0  0  0  0  0  0  0  0
  -15.9359    4.1758  -16.1650 C   0  0  0  0  0  0  0  0  0  0  0  0
  -15.6395    4.8195  -17.3773 C   0  0  0  0  0  0  0  0  0  0  0  0
  -13.8054    5.9333  -20.1621 N   0  0  0  0  0  0  0  0  0  0  0  0
  -14.0485    5.4071  -19.1554 C   0  0  0  0  0  0  0  0  0  0  0  0
 30 31  3  0  0  0
 31 24  1  0  0  0
 24 25  1  0  0  0
 24 29  2  0  0  0
 25 26  2  0  0  0
 26 27  1  0  0  0
 27 28  2  0  0  0
 28 18  1  0  0  0
 28 29  1  0  0  0
 18 19  1  0  0  0
 18 22  1  0  0  0
 19 20  2  0  0  0
 19 21  1  0  0  0
 21  1  1  0  0  0
 21 23  1  0  0  0
  1  2  1  0  0  0
  1  6  2  0  0  0
  2  3  2  0  0  0
  3  4  1  0  0  0
  4  7  1  0  0  0
  4  5  2  0  0  0
  7  8  1  0  0  0
  7 12  2  0  0  0
  8  9  2  0  0  0
  9 10  1  0  0  0
 10 11  2  0  0  0
 11 12  1  0  0  0
 11 15  1  0  0  0
 12 13  1  0  0  0
 13 14  1  0  0  0
 14 15  1  0  0  0
 14 17  1  0  0  0
 15 16  2  0  0  0
  5  6  1  0  0  0
M  END
> <minimizedAffinity>
-10.45060

$$$$
