CHEMBL4225317


 42 45  0  0  0  0  0  0  0  0999 V2000
  -29.0336   -4.8977   -3.6422 N   0  0  0  0  0  0  0  0  0  0  0  0
  -28.5316   -4.5899   -2.8174 H   0  0  0  0  0  0  0  0  0  0  0  0
  -28.1372   -2.4139   -6.9075 C   0  0  0  0  0  0  0  0  0  0  0  0
  -27.6905   -2.1150   -5.6215 C   0  0  0  0  0  0  0  0  0  0  0  0
  -27.9786   -2.9894   -4.5756 C   0  0  0  0  0  0  0  0  0  0  0  0
  -28.7248   -4.1614   -4.7954 C   0  0  0  0  0  0  0  0  0  0  0  0
  -29.1459   -4.4626   -6.0844 C   0  0  0  0  0  0  0  0  0  0  0  0
  -28.8433   -3.5991   -7.1424 C   0  0  0  0  0  0  0  0  0  0  0  0
  -27.7663   -0.2623   -7.7715 O   0  0  0  0  0  0  0  0  0  0  0  0
  -27.8219   -1.4656   -7.9976 C   0  0  0  0  0  0  0  0  0  0  0  0
  -27.6313   -2.0367   -9.3550 C   0  0  0  0  0  0  0  0  0  0  0  0
  -26.5355   -1.7008  -10.0429 C   0  0  0  0  0  0  0  0  0  0  0  0
  -26.2042   -2.1069  -11.3066 N   0  0  0  0  0  0  0  0  0  0  0  0
  -26.8156   -2.7799  -11.7615 H   0  0  0  0  0  0  0  0  0  0  0  0
  -25.1199   -1.6708  -12.0941 C   0  0  0  0  0  0  0  0  0  0  0  0
  -23.8528   -1.4254  -11.5373 C   0  0  0  0  0  0  0  0  0  0  0  0
  -22.7967   -0.9581  -12.3206 C   0  0  0  0  0  0  0  0  0  0  0  0
  -22.9855   -0.7116  -13.6774 C   0  0  0  0  0  0  0  0  0  0  0  0
  -24.2358   -0.9357  -14.2504 C   0  0  0  0  0  0  0  0  0  0  0  0
  -25.2905   -1.4076  -13.4669 C   0  0  0  0  0  0  0  0  0  0  0  0
  -26.8295   -1.6444  -14.2262 Cl  0  0  0  0  0  0  0  0  0  0  0  0
  -29.9969   -5.8380   -3.3339 C   0  0  0  0  0  0  0  0  0  0  0  0
  -31.6561   -5.7159   -3.3820 S   0  0  0  0  0  0  0  0  0  0  0  0
  -29.4417   -7.0674   -2.9923 N   0  0  0  0  0  0  0  0  0  0  0  0
  -29.2682   -7.2139   -2.0032 H   0  0  0  0  0  0  0  0  0  0  0  0
  -29.0451   -8.0765   -3.8991 C   0  0  0  0  0  0  0  0  0  0  0  0
  -28.1669   -9.0985   -3.5085 C   0  0  0  0  0  0  0  0  0  0  0  0
  -27.6238   -9.9729   -4.4453 C   0  0  0  0  0  0  0  0  0  0  0  0
  -28.0080   -9.8550   -5.7801 C   0  0  0  0  0  0  0  0  0  0  0  0
  -28.9585   -8.9028   -6.1680 C   0  0  0  0  0  0  0  0  0  0  0  0
  -29.4988   -8.0262   -5.2166 C   0  0  0  0  0  0  0  0  0  0  0  0
  -27.1584  -10.8353   -7.0025 S   0  0  0  0  0  0  0  0  0  0  0  0
  -28.1081  -11.7912   -7.5373 O   0  0  0  0  0  0  0  0  0  0  0  0
  -26.4752   -9.9065   -7.8789 O   0  0  0  0  0  0  0  0  0  0  0  0
  -25.9699  -11.6433   -6.1357 N   0  0  0  0  0  0  0  0  0  0  0  0
  -26.1377  -12.6460   -6.1563 H   0  0  0  0  0  0  0  0  0  0  0  0
  -24.6456  -11.3615   -6.5110 C   0  0  0  0  0  0  0  0  0  0  0  0
  -23.9419  -12.1616   -7.3929 C   0  0  0  0  0  0  0  0  0  0  0  0
  -22.6379  -11.7900   -7.7016 C   0  0  0  0  0  0  0  0  0  0  0  0
  -22.0918  -10.6617   -7.0966 C   0  0  0  0  0  0  0  0  0  0  0  0
  -22.8781   -9.9469   -6.2053 C   0  0  0  0  0  0  0  0  0  0  0  0
  -24.1540  -10.2706   -5.9015 N   0  0  0  0  0  0  0  0  0  0  0  0
  9 10  2  0  0  0
 10 11  1  0  0  0
 10  3  1  0  0  0
 11 12  2  0  0  0
 12 13  1  0  0  0
 13 15  1  0  0  0
 13 14  1  0  0  0
 15 16  1  0  0  0
 15 20  2  0  0  0
 16 17  2  0  0  0
 17 18  1  0  0  0
 18 19  2  0  0  0
 19 20  1  0  0  0
 20 21  1  0  0  0
  3  4  1  0  0  0
  3  8  2  0  0  0
  4  5  2  0  0  0
  5  6  1  0  0  0
  6  1  1  0  0  0
  6  7  2  0  0  0
  1 22  1  0  0  0
  1  2  1  0  0  0
 22 23  2  0  0  0
 22 24  1  0  0  0
 24 26  1  0  0  0
 24 25  1  0  0  0
 26 27  1  0  0  0
 26 31  2  0  0  0
 27 28  2  0  0  0
 28 29  1  0  0  0
 29 32  1  0  0  0
 29 30  2  0  0  0
 32 33  2  0  0  0
 32 34  2  0  0  0
 32 35  1  0  0  0
 35 37  1  0  0  0
 35 36  1  0  0  0
 37 38  1  0  0  0
 37 42  2  0  0  0
 38 39  2  0  0  0
 39 40  1  0  0  0
 40 41  2  0  0  0
 41 42  1  0  0  0
 30 31  1  0  0  0
  7  8  1  0  0  0
M  END
> <minimizedAffinity>
-9.44269

$$$$
