CHEMBL3944876


 43 47  0  0  0  0  0  0  0  0999 V2000
  -16.8813    1.8285  -14.1269 O   0  0  0  0  0  0  0  0  0  0  0  0
  -17.0376    2.3396  -15.2294 C   0  0  0  0  0  0  0  0  0  0  0  0
  -16.0010    2.8570  -15.9932 N   0  0  0  0  0  0  0  0  0  0  0  0
  -18.2706    2.4959  -15.8376 N   0  0  0  0  0  0  0  0  0  0  0  0
  -16.2514    3.4480  -16.7703 H   0  0  0  0  0  0  0  0  0  0  0  0
  -18.2837    2.8450  -16.7834 H   0  0  0  0  0  0  0  0  0  0  0  0
  -19.5176    2.1575  -15.2592 C   0  0  0  0  0  0  0  0  0  0  0  0
  -20.0006    0.8464  -15.1898 C   0  0  0  0  0  0  0  0  0  0  0  0
  -21.2269    0.5551  -14.5948 C   0  0  0  0  0  0  0  0  0  0  0  0
  -22.0269    1.5806  -14.0961 C   0  0  0  0  0  0  0  0  0  0  0  0
  -21.5367    2.8858  -14.1357 C   0  0  0  0  0  0  0  0  0  0  0  0
  -22.2586    3.8934  -13.6233 F   0  0  0  0  0  0  0  0  0  0  0  0
  -20.2955    3.1805  -14.7119 C   0  0  0  0  0  0  0  0  0  0  0  0
  -23.2637    1.3594  -13.5250 O   0  0  0  0  0  0  0  0  0  0  0  0
  -23.5393    0.1117  -12.9959 C   0  0  0  0  0  0  0  0  0  0  0  0
  -22.8672   -1.0441  -13.3873 C   0  0  0  0  0  0  0  0  0  0  0  0
  -23.1955   -2.2223  -12.7622 C   0  0  0  0  0  0  0  0  0  0  0  0
  -24.1565   -2.3178  -11.8308 N   0  0  0  0  0  0  0  0  0  0  0  0
  -24.8445   -1.2158  -11.4862 C   0  0  0  0  0  0  0  0  0  0  0  0
  -24.5679    0.0252  -12.0520 C   0  0  0  0  0  0  0  0  0  0  0  0
  -25.8632   -1.3301  -10.5281 N   0  0  0  0  0  0  0  0  0  0  0  0
  -27.1894   -1.5789  -10.8421 C   0  0  0  0  0  0  0  0  0  0  0  0
  -27.6880   -1.7408  -11.9459 O   0  0  0  0  0  0  0  0  0  0  0  0
  -25.6127   -1.2154   -9.5585 H   0  0  0  0  0  0  0  0  0  0  0  0
  -28.0841   -1.6102   -9.6431 C   0  0  0  0  0  0  0  0  0  0  0  0
  -27.5401   -1.3554   -8.2518 C   0  0  0  0  0  0  0  0  0  0  0  0
  -27.9292   -2.7464   -8.6568 C   0  0  0  0  0  0  0  0  0  0  0  0
  -14.6439    2.8689  -15.5879 C   0  0  0  0  0  0  0  0  0  0  0  0
  -13.9551    1.7012  -15.2436 C   0  0  0  0  0  0  0  0  0  0  0  0
  -12.6499    1.7072  -14.7310 C   0  0  0  0  0  0  0  0  0  0  0  0
  -12.0197    2.9519  -14.6154 C   0  0  0  0  0  0  0  0  0  0  0  0
  -12.6486    4.1371  -15.0308 C   0  0  0  0  0  0  0  0  0  0  0  0
  -13.9679    4.0861  -15.5156 C   0  0  0  0  0  0  0  0  0  0  0  0
  -11.9838    0.4452  -14.3470 C   0  0  0  0  0  0  0  0  0  0  0  0
  -11.5346   -0.4836  -15.3003 C   0  0  0  0  0  0  0  0  0  0  0  0
  -10.8923   -1.6536  -14.9019 C   0  0  0  0  0  0  0  0  0  0  0  0
  -10.7203   -1.8778  -13.5509 C   0  0  0  0  0  0  0  0  0  0  0  0
  -11.1291   -1.0204  -12.5956 N   0  0  0  0  0  0  0  0  0  0  0  0
  -11.7444    0.1092  -13.0138 C   0  0  0  0  0  0  0  0  0  0  0  0
  -11.9027    5.4453  -14.9601 C   0  0  0  0  0  0  0  0  0  0  0  0
  -10.9525    5.5818  -15.9268 F   0  0  0  0  0  0  0  0  0  0  0  0
  -12.7310    6.5165  -15.0997 F   0  0  0  0  0  0  0  0  0  0  0  0
  -11.2590    5.6178  -13.7744 F   0  0  0  0  0  0  0  0  0  0  0  0
  1  2  2  0  0  0
  2  3  1  0  0  0
  2  4  1  0  0  0
  3 28  1  0  0  0
  3  5  1  0  0  0
 28 29  1  0  0  0
 28 33  2  0  0  0
 29 30  2  0  0  0
 30 34  1  0  0  0
 30 31  1  0  0  0
 34 35  1  0  0  0
 34 39  2  0  0  0
 35 36  2  0  0  0
 36 37  1  0  0  0
 37 38  2  0  0  0
 38 39  1  0  0  0
 31 32  2  0  0  0
 32 40  1  0  0  0
 32 33  1  0  0  0
 40 41  1  0  0  0
 40 42  1  0  0  0
 40 43  1  0  0  0
  4  7  1  0  0  0
  4  6  1  0  0  0
  7  8  1  0  0  0
  7 13  2  0  0  0
  8  9  2  0  0  0
  9 10  1  0  0  0
 10 14  1  0  0  0
 10 11  2  0  0  0
 14 15  1  0  0  0
 15 16  1  0  0  0
 15 20  2  0  0  0
 16 17  2  0  0  0
 17 18  1  0  0  0
 18 19  2  0  0  0
 19 21  1  0  0  0
 19 20  1  0  0  0
 21 22  1  0  0  0
 21 24  1  0  0  0
 22 23  2  0  0  0
 22 25  1  0  0  0
 25 26  1  0  0  0
 25 27  1  0  0  0
 26 27  1  0  0  0
 11 12  1  0  0  0
 11 13  1  0  0  0
M  END
> <minimizedAffinity>
-10.45926

$$$$
