CHEMBL3962805


 41 45  0  0  0  0  0  0  0  0999 V2000
  -27.5969   -2.0778   -8.9727 C   0  0  0  0  0  0  0  0  0  0  0  0
  -27.8314   -1.1240   -7.9970 C   0  0  0  0  0  0  0  0  0  0  0  0
  -28.3107   -1.4427   -6.7684 N   0  0  0  0  0  0  0  0  0  0  0  0
  -28.5684   -2.7465   -6.5488 C   0  0  0  0  0  0  0  0  0  0  0  0
  -29.1179   -3.1520   -5.3456 C   0  0  0  0  0  0  0  0  0  0  0  0
  -29.4655   -4.4891   -5.1213 C   0  0  0  0  0  0  0  0  0  0  0  0
  -29.2194   -5.4921   -6.0740 C   0  0  0  0  0  0  0  0  0  0  0  0
  -28.6209   -5.0621   -7.2699 C   0  0  0  0  0  0  0  0  0  0  0  0
  -28.3212   -3.7276   -7.5338 C   0  0  0  0  0  0  0  0  0  0  0  0
  -27.8254   -3.3937   -8.7394 N   0  0  0  0  0  0  0  0  0  0  0  0
  -25.7285   -1.4238  -11.9802 N   0  0  0  0  0  0  0  0  0  0  0  0
  -25.7952   -1.8042  -10.6691 C   0  0  0  0  0  0  0  0  0  0  0  0
  -27.1209   -1.7419  -10.2955 C   0  0  0  0  0  0  0  0  0  0  0  0
  -27.7872   -1.3262  -11.4638 C   0  0  0  0  0  0  0  0  0  0  0  0
  -26.9548   -1.1434  -12.4926 N   0  0  0  0  0  0  0  0  0  0  0  0
  -24.5310   -1.2606  -12.8286 C   0  0  0  0  0  0  0  0  0  0  0  0
  -24.9337   -1.5108  -14.2980 C   0  0  0  0  0  0  0  0  0  0  0  0
  -23.4501   -2.2883  -12.4429 C   0  0  0  0  0  0  0  0  0  0  0  0
  -23.2472    0.6507  -13.8007 N   0  0  0  0  0  0  0  0  0  0  0  0
  -23.9809    0.1857  -12.7266 C   0  0  0  0  0  0  0  0  0  0  0  0
  -24.1033    0.8662  -11.7065 O   0  0  0  0  0  0  0  0  0  0  0  0
  -23.3268    0.2096  -14.7088 H   0  0  0  0  0  0  0  0  0  0  0  0
  -22.6766    1.9889  -13.8234 C   0  0  0  0  0  0  0  0  0  0  0  0
  -21.2954    1.9783  -14.4768 C   0  0  0  0  0  0  0  0  0  0  0  0
  -19.5657    3.4321  -15.1548 C   0  0  0  0  0  0  0  0  0  0  0  0
  -20.9528    3.3163  -14.8602 O   0  0  0  0  0  0  0  0  0  0  0  0
  -29.5854   -6.8542   -5.8380 N   0  0  0  0  0  0  0  0  0  0  0  0
  -30.1348   -7.7596   -6.7978 C   0  0  0  0  0  0  0  0  0  0  0  0
  -31.4251   -8.2991   -6.6859 C   0  0  0  0  0  0  0  0  0  0  0  0
  -31.9173   -9.2576   -7.5818 C   0  0  0  0  0  0  0  0  0  0  0  0
  -31.1107   -9.7110   -8.6229 C   0  0  0  0  0  0  0  0  0  0  0  0
  -29.8432   -9.1697   -8.7984 C   0  0  0  0  0  0  0  0  0  0  0  0
  -29.3774   -8.1959   -7.9043 C   0  0  0  0  0  0  0  0  0  0  0  0
  -33.1586   -9.8359   -7.5198 O   0  0  0  0  0  0  0  0  0  0  0  0
  -33.3218  -10.9089   -6.5984 C   0  0  0  0  0  0  0  0  0  0  0  0
  -28.9553   -9.5474   -9.7703 O   0  0  0  0  0  0  0  0  0  0  0  0
  -27.5806   -9.4759   -9.4060 C   0  0  0  0  0  0  0  0  0  0  0  0
  -29.2054   -7.3935   -4.5036 C   0  0  0  0  0  0  0  0  0  0  0  0
  -28.3973   -8.6614   -4.6323 C   0  0  0  0  0  0  0  0  0  0  0  0
  -27.8304   -9.3520   -3.4096 C   0  0  0  0  0  0  0  0  0  0  0  0
  -26.9105   -8.6586   -4.3727 C   0  0  0  0  0  0  0  0  0  0  0  0
 25 26  1  0  0  0
 26 24  1  0  0  0
 24 23  1  0  0  0
 23 19  1  0  0  0
 19 20  1  0  0  0
 19 22  1  0  0  0
 20 21  2  0  0  0
 20 16  1  0  0  0
 16 17  1  0  0  0
 16 18  1  0  0  0
 16 11  1  0  0  0
 11 12  1  0  0  0
 11 15  1  0  0  0
 12 13  2  0  0  0
 13  1  1  0  0  0
 13 14  1  0  0  0
  1  2  1  0  0  0
  1 10  2  0  0  0
  2  3  2  0  0  0
  3  4  1  0  0  0
  4  5  1  0  0  0
  4  9  2  0  0  0
  5  6  2  0  0  0
  6  7  1  0  0  0
  7 27  1  0  0  0
  7  8  2  0  0  0
 27 38  1  0  0  0
 27 28  1  0  0  0
 38 39  1  0  0  0
 39 40  1  0  0  0
 39 41  1  0  0  0
 40 41  1  0  0  0
 28 29  1  0  0  0
 28 33  2  0  0  0
 29 30  2  0  0  0
 30 34  1  0  0  0
 30 31  1  0  0  0
 34 35  1  0  0  0
 31 32  2  0  0  0
 32 36  1  0  0  0
 32 33  1  0  0  0
 36 37  1  0  0  0
  8  9  1  0  0  0
  9 10  1  0  0  0
 14 15  2  0  0  0
M  END
> <minimizedAffinity>
-9.48839

$$$$
