CHEMBL1085240


 45 50  0  0  0  0  0  0  0  0999 V2000
  -27.0751   -1.8125  -11.1224 C   0  0  0  0  0  0  0  0  0  0  0  0
  -27.7155   -2.2469  -12.3010 C   0  0  0  0  0  0  0  0  0  0  0  0
  -27.0349   -1.9622  -13.4107 N   0  0  0  0  0  0  0  0  0  0  0  0
  -25.9332   -1.2916  -12.9614 N   0  0  0  0  0  0  0  0  0  0  0  0
  -24.8949   -0.7372  -13.7593 C   0  0  0  0  0  0  0  0  0  0  0  0
  -25.0456   -0.8174  -15.1441 N   0  0  0  0  0  0  0  0  0  0  0  0
  -23.8407   -0.1811  -13.1246 C   0  0  0  0  0  0  0  0  0  0  0  0
  -23.9146   -0.1534  -11.6332 C   0  0  0  0  0  0  0  0  0  0  0  0
  -24.8638   -0.6337  -10.8939 N   0  0  0  0  0  0  0  0  0  0  0  0
  -25.9039   -1.2216  -11.5625 C   0  0  0  0  0  0  0  0  0  0  0  0
  -25.7149   -1.5430  -15.4126 H   0  0  0  0  0  0  0  0  0  0  0  0
  -24.1776   -0.8249  -15.6709 H   0  0  0  0  0  0  0  0  0  0  0  0
  -28.2505   -3.2930   -7.8362 C   0  0  0  0  0  0  0  0  0  0  0  0
  -28.2310   -2.1317   -7.0523 C   0  0  0  0  0  0  0  0  0  0  0  0
  -27.8872   -0.8836   -7.5866 C   0  0  0  0  0  0  0  0  0  0  0  0
  -27.5299   -0.7679   -8.9269 C   0  0  0  0  0  0  0  0  0  0  0  0
  -27.5203   -1.9002   -9.7411 C   0  0  0  0  0  0  0  0  0  0  0  0
  -27.8977   -3.1346   -9.1866 C   0  0  0  0  0  0  0  0  0  0  0  0
  -30.7656   -8.0995   -6.4130 C   0  0  0  0  0  0  0  0  0  0  0  0
  -29.6969   -7.1089   -6.4938 N   0  0  0  0  0  0  0  0  0  0  0  0
  -29.3443   -6.8337   -7.9056 C   0  0  0  0  0  0  0  0  0  0  0  0
  -28.2264   -5.7731   -8.0258 C   0  0  0  0  0  0  0  0  0  0  0  0
  -28.6489   -4.5276   -7.3517 N   0  0  0  0  0  0  0  0  0  0  0  0
  -29.0254   -4.7350   -5.9446 C   0  0  0  0  0  0  0  0  0  0  0  0
  -30.1080   -5.8398   -5.8509 C   0  0  0  0  0  0  0  0  0  0  0  0
  -22.6913    0.4259  -13.7904 C   0  0  0  0  0  0  0  0  0  0  0  0
  -22.5409    1.8106  -13.7724 C   0  0  0  0  0  0  0  0  0  0  0  0
  -21.4084    2.3974  -14.3343 C   0  0  0  0  0  0  0  0  0  0  0  0
  -20.4158    1.6164  -14.9312 C   0  0  0  0  0  0  0  0  0  0  0  0
  -20.5784    0.2258  -14.9617 C   0  0  0  0  0  0  0  0  0  0  0  0
  -21.7117   -0.3679  -14.3950 C   0  0  0  0  0  0  0  0  0  0  0  0
  -19.2357    2.1583  -15.4859 N   0  0  0  0  0  0  0  0  0  0  0  0
  -17.9588    2.0155  -14.9706 C   0  0  0  0  0  0  0  0  0  0  0  0
  -17.6548    1.4899  -13.9053 O   0  0  0  0  0  0  0  0  0  0  0  0
  -19.3530    2.7420  -16.3033 H   0  0  0  0  0  0  0  0  0  0  0  0
  -16.8512    2.5792  -15.7846 C   0  0  0  0  0  0  0  0  0  0  0  0
  -15.8621    1.6945  -16.2359 C   0  0  0  0  0  0  0  0  0  0  0  0
  -14.8412    2.1426  -17.0767 C   0  0  0  0  0  0  0  0  0  0  0  0
  -14.8015    3.4804  -17.4809 C   0  0  0  0  0  0  0  0  0  0  0  0
  -15.7960    4.3652  -17.0257 C   0  0  0  0  0  0  0  0  0  0  0  0
  -16.8186    3.9195  -16.1826 C   0  0  0  0  0  0  0  0  0  0  0  0
  -13.7255    3.9745  -18.4195 C   0  0  0  0  0  0  0  0  0  0  0  0
  -13.2102    3.0027  -19.2208 F   0  0  0  0  0  0  0  0  0  0  0  0
  -14.1781    4.9491  -19.2566 F   0  0  0  0  0  0  0  0  0  0  0  0
  -12.6676    4.5148  -17.7554 F   0  0  0  0  0  0  0  0  0  0  0  0
 19 20  1  0  0  0
 20 21  1  0  0  0
 20 25  1  0  0  0
 21 22  1  0  0  0
 22 23  1  0  0  0
 23 13  1  0  0  0
 23 24  1  0  0  0
 13 14  1  0  0  0
 13 18  2  0  0  0
 14 15  2  0  0  0
 15 16  1  0  0  0
 16 17  2  0  0  0
 17  1  1  0  0  0
 17 18  1  0  0  0
  1  2  1  0  0  0
  1 10  2  0  0  0
  2  3  2  0  0  0
  3  4  1  0  0  0
  4  5  1  0  0  0
  4 10  1  0  0  0
  5  6  1  0  0  0
  5  7  2  0  0  0
  6 11  1  0  0  0
  6 12  1  0  0  0
  7 26  1  0  0  0
  7  8  1  0  0  0
 26 27  1  0  0  0
 26 31  2  0  0  0
 27 28  2  0  0  0
 28 29  1  0  0  0
 29 32  1  0  0  0
 29 30  2  0  0  0
 32 33  1  0  0  0
 32 35  1  0  0  0
 33 34  2  0  0  0
 33 36  1  0  0  0
 36 37  1  0  0  0
 36 41  2  0  0  0
 37 38  2  0  0  0
 38 39  1  0  0  0
 39 42  1  0  0  0
 39 40  2  0  0  0
 42 43  1  0  0  0
 42 44  1  0  0  0
 42 45  1  0  0  0
 40 41  1  0  0  0
 30 31  1  0  0  0
  8  9  2  0  0  0
  9 10  1  0  0  0
 24 25  1  0  0  0
M  END
> <minimizedAffinity>
-11.22621

$$$$
