CHEMBL3947334


 38 41  0  0  0  0  0  0  0  0999 V2000
  -13.5270    1.3677  -13.5427 C   0  0  0  0  0  0  0  0  0  0  0  0
  -14.9151    1.4774  -14.1116 C   0  0  0  0  0  0  0  0  0  0  0  0
  -15.1069    2.4410  -15.1214 C   0  0  0  0  0  0  0  0  0  0  0  0
  -16.3378    2.5991  -15.7504 C   0  0  0  0  0  0  0  0  0  0  0  0
  -17.3849    1.7388  -15.4405 C   0  0  0  0  0  0  0  0  0  0  0  0
  -17.2238    0.8134  -14.4036 C   0  0  0  0  0  0  0  0  0  0  0  0
  -16.0044    0.6624  -13.7160 C   0  0  0  0  0  0  0  0  0  0  0  0
  -15.8661   -0.2566  -12.6259 N   0  0  0  0  0  0  0  0  0  0  0  0
  -15.3312   -1.5408  -12.7027 C   0  0  0  0  0  0  0  0  0  0  0  0
  -14.7673   -2.0179  -13.6818 O   0  0  0  0  0  0  0  0  0  0  0  0
  -15.5559   -2.2838  -11.5439 N   0  0  0  0  0  0  0  0  0  0  0  0
  -16.0884    0.0867  -11.7058 H   0  0  0  0  0  0  0  0  0  0  0  0
  -16.4260   -2.0716  -11.0763 H   0  0  0  0  0  0  0  0  0  0  0  0
  -15.1152   -3.6347  -11.4570 C   0  0  0  0  0  0  0  0  0  0  0  0
  -16.0002   -4.6610  -11.7810 C   0  0  0  0  0  0  0  0  0  0  0  0
  -15.5504   -5.9837  -11.8138 C   0  0  0  0  0  0  0  0  0  0  0  0
  -14.2316   -6.3051  -11.4688 C   0  0  0  0  0  0  0  0  0  0  0  0
  -13.7715   -7.9653  -11.5981 Cl  0  0  0  0  0  0  0  0  0  0  0  0
  -13.3427   -5.3017  -11.0637 C   0  0  0  0  0  0  0  0  0  0  0  0
  -13.8004   -3.9641  -11.0839 C   0  0  0  0  0  0  0  0  0  0  0  0
  -11.9249   -5.5888  -10.6142 C   0  0  0  0  0  0  0  0  0  0  0  0
  -11.1160   -4.3234  -10.3733 C   0  0  0  0  0  0  0  0  0  0  0  0
  -11.9017   -6.3028   -9.4455 F   0  0  0  0  0  0  0  0  0  0  0  0
  -11.2300   -6.3713  -11.4928 F   0  0  0  0  0  0  0  0  0  0  0  0
  -18.6129    1.7639  -16.0724 O   0  0  0  0  0  0  0  0  0  0  0  0
  -19.7497    1.9898  -15.3203 C   0  0  0  0  0  0  0  0  0  0  0  0
  -20.0352    3.2101  -14.7141 C   0  0  0  0  0  0  0  0  0  0  0  0
  -21.1460    3.2800  -13.9061 C   0  0  0  0  0  0  0  0  0  0  0  0
  -21.9971    2.2547  -13.7336 N   0  0  0  0  0  0  0  0  0  0  0  0
  -21.7734    1.1016  -14.3919 C   0  0  0  0  0  0  0  0  0  0  0  0
  -20.6551    0.9322  -15.1986 C   0  0  0  0  0  0  0  0  0  0  0  0
  -22.6884    0.0441  -14.2487 N   0  0  0  0  0  0  0  0  0  0  0  0
  -22.9380   -0.5958  -13.0492 C   0  0  0  0  0  0  0  0  0  0  0  0
  -22.4147   -0.3757  -11.9651 O   0  0  0  0  0  0  0  0  0  0  0  0
  -23.1791   -0.2610  -15.0720 H   0  0  0  0  0  0  0  0  0  0  0  0
  -23.9422   -1.7081  -13.0734 C   0  0  0  0  0  0  0  0  0  0  0  0
  -25.1770   -1.5750  -13.9331 C   0  0  0  0  0  0  0  0  0  0  0  0
  -25.3086   -1.7169  -12.4444 C   0  0  0  0  0  0  0  0  0  0  0  0
  1  2  1  0  0  0
  2  3  1  0  0  0
  2  7  2  0  0  0
  3  4  2  0  0  0
  4  5  1  0  0  0
  5 25  1  0  0  0
  5  6  2  0  0  0
 25 26  1  0  0  0
 26 27  1  0  0  0
 26 31  2  0  0  0
 27 28  2  0  0  0
 28 29  1  0  0  0
 29 30  2  0  0  0
 30 32  1  0  0  0
 30 31  1  0  0  0
 32 33  1  0  0  0
 32 35  1  0  0  0
 33 34  2  0  0  0
 33 36  1  0  0  0
 36 37  1  0  0  0
 36 38  1  0  0  0
 37 38  1  0  0  0
  6  7  1  0  0  0
  7  8  1  0  0  0
  8  9  1  0  0  0
  8 12  1  0  0  0
  9 10  2  0  0  0
  9 11  1  0  0  0
 11 14  1  0  0  0
 11 13  1  0  0  0
 14 15  1  0  0  0
 14 20  2  0  0  0
 15 16  2  0  0  0
 16 17  1  0  0  0
 17 18  1  0  0  0
 17 19  2  0  0  0
 19 21  1  0  0  0
 19 20  1  0  0  0
 21 22  1  0  0  0
 21 23  1  0  0  0
 21 24  1  0  0  0
M  END
> <minimizedAffinity>
-9.49405

$$$$
