CHEMBL3690478


 32 35  0  0  0  0  0  0  0  0999 V2000
  -29.3984   -2.2986   -5.9502 C   0  0  0  0  0  0  0  0  0  0  0  0
  -29.5727   -1.0214   -5.4131 C   0  0  0  0  0  0  0  0  0  0  0  0
  -28.8718    0.0615   -5.9328 C   0  0  0  0  0  0  0  0  0  0  0  0
  -27.9872   -0.1135   -6.9965 C   0  0  0  0  0  0  0  0  0  0  0  0
  -27.7959   -1.3732   -7.5654 C   0  0  0  0  0  0  0  0  0  0  0  0
  -28.5071   -2.4608   -7.0345 C   0  0  0  0  0  0  0  0  0  0  0  0
  -30.2749   -7.4467   -6.2783 C   0  0  0  0  0  0  0  0  0  0  0  0
  -29.8775   -6.4733   -7.3073 C   0  0  0  0  0  0  0  0  0  0  0  0
  -29.9814   -5.1533   -7.1023 C   0  0  0  0  0  0  0  0  0  0  0  0
  -30.2362   -4.7005   -5.8226 N   0  0  0  0  0  0  0  0  0  0  0  0
  -30.0368   -3.4424   -5.2884 C   0  0  0  0  0  0  0  0  0  0  0  0
  -30.4186   -3.5890   -3.9664 C   0  0  0  0  0  0  0  0  0  0  0  0
  -30.7498   -4.8861   -3.6612 N   0  0  0  0  0  0  0  0  0  0  0  0
  -30.5714   -5.5506   -4.7783 C   0  0  0  0  0  0  0  0  0  0  0  0
  -30.6118   -6.9483   -5.0566 C   0  0  0  0  0  0  0  0  0  0  0  0
  -32.7989   -9.0922   -7.4647 C   0  0  0  0  0  0  0  0  0  0  0  0
  -31.4523   -9.6022   -7.0766 C   0  0  0  0  0  0  0  0  0  0  0  0
  -31.1647  -10.8873   -7.1604 N   0  0  0  0  0  0  0  0  0  0  0  0
  -29.8810  -11.0098   -6.7455 C   0  0  0  0  0  0  0  0  0  0  0  0
  -29.3657   -9.7840   -6.4220 C   0  0  0  0  0  0  0  0  0  0  0  0
  -30.3773   -8.8426   -6.5934 N   0  0  0  0  0  0  0  0  0  0  0  0
  -26.9007   -1.6074   -8.6413 N   0  0  0  0  0  0  0  0  0  0  0  0
  -27.2127   -1.5863   -9.9875 C   0  0  0  0  0  0  0  0  0  0  0  0
  -28.2984   -1.3492  -10.4976 O   0  0  0  0  0  0  0  0  0  0  0  0
  -26.1285   -1.9141  -10.7772 N   0  0  0  0  0  0  0  0  0  0  0  0
  -25.9398   -1.8052   -8.4020 H   0  0  0  0  0  0  0  0  0  0  0  0
  -25.2172   -1.6553  -10.4272 H   0  0  0  0  0  0  0  0  0  0  0  0
  -26.3015   -1.8812  -12.2378 C   0  0  0  0  0  0  0  0  0  0  0  0
  -25.0547   -1.5049  -13.0537 C   0  0  0  0  0  0  0  0  0  0  0  0
  -24.6175   -0.2580  -12.7605 F   0  0  0  0  0  0  0  0  0  0  0  0
  -24.0375   -2.3532  -12.7557 F   0  0  0  0  0  0  0  0  0  0  0  0
  -25.2621   -1.5794  -14.3835 F   0  0  0  0  0  0  0  0  0  0  0  0
 16 17  1  0  0  0
 17 18  2  0  0  0
 17 21  1  0  0  0
 18 19  1  0  0  0
 19 20  2  0  0  0
 20 21  1  0  0  0
 21  7  1  0  0  0
  7  8  1  0  0  0
  7 15  2  0  0  0
  8  9  2  0  0  0
  9 10  1  0  0  0
 10 11  1  0  0  0
 10 14  1  0  0  0
 11  1  1  0  0  0
 11 12  2  0  0  0
  1  2  1  0  0  0
  1  6  2  0  0  0
  2  3  2  0  0  0
  3  4  1  0  0  0
  4  5  2  0  0  0
  5 22  1  0  0  0
  5  6  1  0  0  0
 22 23  1  0  0  0
 22 26  1  0  0  0
 23 24  2  0  0  0
 23 25  1  0  0  0
 25 28  1  0  0  0
 25 27  1  0  0  0
 28 29  1  0  0  0
 29 30  1  0  0  0
 29 31  1  0  0  0
 29 32  1  0  0  0
 12 13  1  0  0  0
 13 14  2  0  0  0
 14 15  1  0  0  0
M  END
> <minimizedAffinity>
-9.37008

$$$$
