CHEMBL3899440


 38 41  0  0  0  0  0  0  0  0999 V2000
  -28.6263   -5.2661   -5.7824 C   0  0  0  0  0  0  0  0  0  0  0  0
  -28.2868   -3.9883   -5.3085 C   0  0  0  0  0  0  0  0  0  0  0  0
  -28.0728   -2.9176   -6.1624 C   0  0  0  0  0  0  0  0  0  0  0  0
  -27.7745   -1.7137   -5.6628 N   0  0  0  0  0  0  0  0  0  0  0  0
  -27.6220   -0.7206   -6.5463 C   0  0  0  0  0  0  0  0  0  0  0  0
  -27.7597   -0.8125   -7.8720 N   0  0  0  0  0  0  0  0  0  0  0  0
  -28.0646   -2.0233   -8.3650 C   0  0  0  0  0  0  0  0  0  0  0  0
  -28.1986   -3.1438   -7.5333 C   0  0  0  0  0  0  0  0  0  0  0  0
  -28.4737   -4.4402   -8.0195 C   0  0  0  0  0  0  0  0  0  0  0  0
  -28.7263   -5.4991   -7.1588 C   0  0  0  0  0  0  0  0  0  0  0  0
  -28.3000   -2.1986   -9.7617 N   0  0  0  0  0  0  0  0  0  0  0  0
  -29.2276   -1.8370   -9.9724 H   0  0  0  0  0  0  0  0  0  0  0  0
  -27.4224   -1.9912  -10.8413 C   0  0  0  0  0  0  0  0  0  0  0  0
  -27.8734   -1.7289  -12.1363 C   0  0  0  0  0  0  0  0  0  0  0  0
  -26.9712   -1.5182  -13.1794 C   0  0  0  0  0  0  0  0  0  0  0  0
  -25.6004   -1.5169  -12.9290 C   0  0  0  0  0  0  0  0  0  0  0  0
  -24.5380   -1.2827  -14.2688 Cl  0  0  0  0  0  0  0  0  0  0  0  0
  -25.1354   -1.6971  -11.6231 C   0  0  0  0  0  0  0  0  0  0  0  0
  -23.4543   -1.6635  -11.2221 Cl  0  0  0  0  0  0  0  0  0  0  0  0
  -26.0471   -1.9178  -10.5864 C   0  0  0  0  0  0  0  0  0  0  0  0
  -29.1215   -6.7261   -7.6090 O   0  0  0  0  0  0  0  0  0  0  0  0
  -30.5042   -7.0577   -7.5416 C   0  0  0  0  0  0  0  0  0  0  0  0
  -28.8329   -6.1712   -4.7764 O   0  0  0  0  0  0  0  0  0  0  0  0
  -27.9748   -7.3127   -4.7195 C   0  0  0  0  0  0  0  0  0  0  0  0
  -25.4337   -9.5888   -4.4008 C   0  0  0  0  0  0  0  0  0  0  0  0
  -24.9767   -9.0082   -3.4161 O   0  0  0  0  0  0  0  0  0  0  0  0
  -26.7500  -10.0092   -4.4496 N   0  0  0  0  0  0  0  0  0  0  0  0
  -27.4324  -10.7190   -5.5404 C   0  0  0  0  0  0  0  0  0  0  0  0
  -28.5731   -9.8801   -6.1408 C   0  0  0  0  0  0  0  0  0  0  0  0
  -29.4159   -9.3005   -5.1339 O   0  0  0  0  0  0  0  0  0  0  0  0
  -28.6772   -8.5604   -4.1308 C   0  0  0  0  0  0  0  0  0  0  0  0
  -27.6745   -9.4945   -3.4415 C   0  0  0  0  0  0  0  0  0  0  0  0
  -24.5958   -9.7499   -5.6464 C   0  0  0  0  0  0  0  0  0  0  0  0
  -23.2102  -10.2910   -5.3150 C   0  0  0  0  0  0  0  0  0  0  0  0
  -22.6483  -11.0408   -6.4916 C   0  0  0  0  0  0  0  0  0  0  0  0
  -23.3131  -11.6419   -7.3244 O   0  0  0  0  0  0  0  0  0  0  0  0
  -20.7794   -9.9252   -7.3378 C   0  0  0  0  0  0  0  0  0  0  0  0
  -21.2902  -10.9517   -6.4877 O   0  0  0  0  0  0  0  0  0  0  0  0
 37 38  1  0  0  0
 38 35  1  0  0  0
 35 36  2  0  0  0
 35 34  1  0  0  0
 34 33  1  0  0  0
 33 25  1  0  0  0
 25 26  2  0  0  0
 25 27  1  0  0  0
 27 28  1  0  0  0
 27 32  1  0  0  0
 28 29  1  0  0  0
 29 30  1  0  0  0
 30 31  1  0  0  0
 31 24  1  0  0  0
 31 32  1  0  0  0
 24 23  1  0  0  0
 23  1  1  0  0  0
  1  2  1  0  0  0
  1 10  2  0  0  0
  2  3  2  0  0  0
  3  4  1  0  0  0
  3  8  1  0  0  0
  4  5  2  0  0  0
  5  6  1  0  0  0
  6  7  2  0  0  0
  7 11  1  0  0  0
  7  8  1  0  0  0
 11 13  1  0  0  0
 11 12  1  0  0  0
 13 14  1  0  0  0
 13 20  2  0  0  0
 14 15  2  0  0  0
 15 16  1  0  0  0
 16 17  1  0  0  0
 16 18  2  0  0  0
 18 19  1  0  0  0
 18 20  1  0  0  0
  8  9  2  0  0  0
  9 10  1  0  0  0
 10 21  1  0  0  0
 21 22  1  0  0  0
M  END
> <minimizedAffinity>
-8.82934

$$$$
