CHEMBL4250273


 22 24  0  0  0  0  0  0  0  0999 V2000
  -29.7706   -6.8209   -6.2496 N   0  0  0  0  0  0  0  0  0  0  0  0
  -30.6334   -7.7201   -6.9254 C   0  0  0  0  0  0  0  0  0  0  0  0
  -31.9615   -7.7189   -6.5703 N   0  0  0  0  0  0  0  0  0  0  0  0
  -32.8417   -8.5387   -7.1539 C   0  0  0  0  0  0  0  0  0  0  0  0
  -32.5943   -9.4527   -8.0795 N   0  0  0  0  0  0  0  0  0  0  0  0
  -31.3053   -9.4605   -8.4262 C   0  0  0  0  0  0  0  0  0  0  0  0
  -30.8495  -10.3363   -9.3565 O   0  0  0  0  0  0  0  0  0  0  0  0
  -29.5388  -10.0909   -9.5321 C   0  0  0  0  0  0  0  0  0  0  0  0
  -29.1150   -9.0444   -8.7371 C   0  0  0  0  0  0  0  0  0  0  0  0
  -27.7287   -8.5185   -8.8009 C   0  0  0  0  0  0  0  0  0  0  0  0
  -30.2695   -8.6489   -7.9518 C   0  0  0  0  0  0  0  0  0  0  0  0
  -28.7349   -2.8263   -7.2389 C   0  0  0  0  0  0  0  0  0  0  0  0
  -28.3151   -3.8811   -8.0477 C   0  0  0  0  0  0  0  0  0  0  0  0
  -28.7113   -5.1929   -7.7531 C   0  0  0  0  0  0  0  0  0  0  0  0
  -29.5332   -5.4788   -6.6511 C   0  0  0  0  0  0  0  0  0  0  0  0
  -30.0473   -4.3947   -5.9241 C   0  0  0  0  0  0  0  0  0  0  0  0
  -29.6411   -3.0843   -6.2082 C   0  0  0  0  0  0  0  0  0  0  0  0
  -27.7633   -0.9612   -6.1311 C   0  0  0  0  0  0  0  0  0  0  0  0
  -28.3060   -1.5321   -7.3156 O   0  0  0  0  0  0  0  0  0  0  0  0
  -28.6337   -7.4021   -5.4601 C   0  0  0  0  0  0  0  0  0  0  0  0
  -27.8804   -6.3657   -4.5994 C   0  0  0  0  0  0  0  0  0  0  0  0
  -29.0254   -8.6479   -4.6575 C   0  0  0  0  0  0  0  0  0  0  0  0
 18 19  1  0  0  0
 19 12  1  0  0  0
 12 13  1  0  0  0
 12 17  2  0  0  0
 13 14  2  0  0  0
 14 15  1  0  0  0
 15  1  1  0  0  0
 15 16  2  0  0  0
  1  2  1  0  0  0
  1 20  1  0  0  0
  2  3  1  0  0  0
  2 11  2  0  0  0
  3  4  2  0  0  0
  4  5  1  0  0  0
  5  6  2  0  0  0
  6  7  1  0  0  0
  6 11  1  0  0  0
  7  8  1  0  0  0
  8  9  2  0  0  0
  9 10  1  0  0  0
  9 11  1  0  0  0
 20 21  1  0  0  0
 20 22  1  0  0  0
 16 17  1  0  0  0
M  END
> <minimizedAffinity>
-6.91714

$$$$
