CHEMBL3287308


 47 51  0  0  0  0  0  0  0  0999 V2000
  -12.8557    3.3989  -14.4944 C   0  0  0  0  0  0  0  0  0  0  0  0
  -13.8492    3.3704  -15.4663 C   0  0  0  0  0  0  0  0  0  0  0  0
  -13.6809    4.1038  -16.6436 C   0  0  0  0  0  0  0  0  0  0  0  0
  -12.5244    4.8655  -16.8662 C   0  0  0  0  0  0  0  0  0  0  0  0
  -11.5573    4.9271  -15.8523 C   0  0  0  0  0  0  0  0  0  0  0  0
  -11.7298    4.2129  -14.6684 C   0  0  0  0  0  0  0  0  0  0  0  0
  -12.2756    5.5604  -18.0703 N   0  0  0  0  0  0  0  0  0  0  0  0
  -12.7694    5.2290  -19.3149 C   0  0  0  0  0  0  0  0  0  0  0  0
  -13.5141    4.3043  -19.6072 O   0  0  0  0  0  0  0  0  0  0  0  0
  -11.6200    6.3316  -18.0277 H   0  0  0  0  0  0  0  0  0  0  0  0
  -12.2942    6.0989  -20.4347 C   0  0  0  0  0  0  0  0  0  0  0  0
  -11.4669    5.5373  -21.5949 C   0  0  0  0  0  0  0  0  0  0  0  0
  -10.7733    6.2675  -20.4935 C   0  0  0  0  0  0  0  0  0  0  0  0
  -13.2126    7.2313  -20.7772 C   0  0  0  0  0  0  0  0  0  0  0  0
  -12.7716    8.1641  -21.4381 O   0  0  0  0  0  0  0  0  0  0  0  0
  -14.5016    7.1176  -20.2891 N   0  0  0  0  0  0  0  0  0  0  0  0
  -14.6639    6.4530  -19.5412 H   0  0  0  0  0  0  0  0  0  0  0  0
  -15.4951    8.0742  -20.5684 C   0  0  0  0  0  0  0  0  0  0  0  0
  -15.5426    9.2928  -19.8845 C   0  0  0  0  0  0  0  0  0  0  0  0
  -16.5857   10.1933  -20.1106 C   0  0  0  0  0  0  0  0  0  0  0  0
  -17.6154    9.8726  -21.0041 C   0  0  0  0  0  0  0  0  0  0  0  0
  -17.5378    8.6641  -21.7176 C   0  0  0  0  0  0  0  0  0  0  0  0
  -16.4639    7.7857  -21.5280 C   0  0  0  0  0  0  0  0  0  0  0  0
  -18.8027   10.7880  -21.1807 C   0  0  0  0  0  0  0  0  0  0  0  0
  -19.2883   10.8160  -22.4537 F   0  0  0  0  0  0  0  0  0  0  0  0
  -19.8541   10.4396  -20.3887 F   0  0  0  0  0  0  0  0  0  0  0  0
  -18.5117   12.0815  -20.8665 F   0  0  0  0  0  0  0  0  0  0  0  0
  -13.0720    2.6372  -13.3695 O   0  0  0  0  0  0  0  0  0  0  0  0
  -13.9588   -0.7832  -13.8100 C   0  0  0  0  0  0  0  0  0  0  0  0
  -12.7612   -1.3898  -13.8909 N   0  0  0  0  0  0  0  0  0  0  0  0
  -11.6652   -0.6184  -13.7789 C   0  0  0  0  0  0  0  0  0  0  0  0
  -11.7143    0.7337  -13.5775 C   0  0  0  0  0  0  0  0  0  0  0  0
  -12.9801    1.2582  -13.5147 C   0  0  0  0  0  0  0  0  0  0  0  0
  -14.1075    0.5243  -13.5979 N   0  0  0  0  0  0  0  0  0  0  0  0
  -15.1350   -1.5133  -13.9917 N   0  0  0  0  0  0  0  0  0  0  0  0
  -15.8711   -0.8375  -14.1691 H   0  0  0  0  0  0  0  0  0  0  0  0
  -16.0555   -4.9474  -12.8472 C   0  0  0  0  0  0  0  0  0  0  0  0
  -16.3458   -4.6855  -11.5050 C   0  0  0  0  0  0  0  0  0  0  0  0
  -16.2213   -3.3931  -10.9930 C   0  0  0  0  0  0  0  0  0  0  0  0
  -15.8179   -2.3493  -11.8250 C   0  0  0  0  0  0  0  0  0  0  0  0
  -15.5673   -2.5770  -13.1795 C   0  0  0  0  0  0  0  0  0  0  0  0
  -15.6513   -3.8886  -13.6674 C   0  0  0  0  0  0  0  0  0  0  0  0
  -16.1593   -6.3374  -13.4098 C   0  0  0  0  0  0  0  0  0  0  0  0
  -13.8753   -6.7547  -11.7765 C   0  0  0  0  0  0  0  0  0  0  0  0
  -14.5836   -7.1849  -13.3513 S   0  0  0  0  0  0  0  0  0  0  0  0
  -13.7195   -6.6676  -14.3962 O   0  0  0  0  0  0  0  0  0  0  0  0
  -14.8745   -8.6083  -13.2986 O   0  0  0  0  0  0  0  0  0  0  0  0
 44 45  1  0  0  0
 45 46  2  0  0  0
 45 47  2  0  0  0
 45 43  1  0  0  0
 43 37  1  0  0  0
 37 38  1  0  0  0
 37 42  2  0  0  0
 38 39  2  0  0  0
 39 40  1  0  0  0
 40 41  2  0  0  0
 41 35  1  0  0  0
 41 42  1  0  0  0
 35 29  1  0  0  0
 35 36  1  0  0  0
 29 30  1  0  0  0
 29 34  2  0  0  0
 30 31  2  0  0  0
 31 32  1  0  0  0
 32 33  2  0  0  0
 33 28  1  0  0  0
 33 34  1  0  0  0
 28  1  1  0  0  0
  1  2  1  0  0  0
  1  6  2  0  0  0
  2  3  2  0  0  0
  3  4  1  0  0  0
  4  7  1  0  0  0
  4  5  2  0  0  0
  7  8  1  0  0  0
  7 10  1  0  0  0
  8  9  2  0  0  0
  8 11  1  0  0  0
 11 14  1  0  0  0
 11 12  1  0  0  0
 11 13  1  0  0  0
 14 15  2  0  0  0
 14 16  1  0  0  0
 16 18  1  0  0  0
 16 17  1  0  0  0
 18 19  1  0  0  0
 18 23  2  0  0  0
 19 20  2  0  0  0
 20 21  1  0  0  0
 21 24  1  0  0  0
 21 22  2  0  0  0
 24 25  1  0  0  0
 24 26  1  0  0  0
 24 27  1  0  0  0
 22 23  1  0  0  0
 12 13  1  0  0  0
  5  6  1  0  0  0
M  END
> <minimizedAffinity>
-7.68379

$$$$
