CHEMBL478629


 30 34  0  0  0  0  0  0  0  0999 V2000
  -29.2087   -2.7372   -5.6998 C   0  0  0  0  0  0  0  0  0  0  0  0
  -29.1665   -1.3820   -5.3018 C   0  0  0  0  0  0  0  0  0  0  0  0
  -28.5871   -0.5837   -6.1982 N   0  0  0  0  0  0  0  0  0  0  0  0
  -28.2378   -1.4158   -7.2082 N   0  0  0  0  0  0  0  0  0  0  0  0
  -27.5860   -1.0748   -8.3888 C   0  0  0  0  0  0  0  0  0  0  0  0
  -27.3060   -2.0140   -9.3058 C   0  0  0  0  0  0  0  0  0  0  0  0
  -27.7388   -3.3962   -8.9391 C   0  0  0  0  0  0  0  0  0  0  0  0
  -28.3437   -3.7496   -7.8444 N   0  0  0  0  0  0  0  0  0  0  0  0
  -28.6084   -2.7408   -6.9479 C   0  0  0  0  0  0  0  0  0  0  0  0
  -31.4915   -5.1511   -3.9797 C   0  0  0  0  0  0  0  0  0  0  0  0
  -31.0628   -4.0065   -4.6306 C   0  0  0  0  0  0  0  0  0  0  0  0
  -29.7188   -3.9033   -4.9947 C   0  0  0  0  0  0  0  0  0  0  0  0
  -28.8622   -4.9581   -4.6675 C   0  0  0  0  0  0  0  0  0  0  0  0
  -29.3869   -6.0614   -4.0115 C   0  0  0  0  0  0  0  0  0  0  0  0
  -30.6817   -6.1823   -3.6599 N   0  0  0  0  0  0  0  0  0  0  0  0
  -26.6245   -1.7214  -10.5620 C   0  0  0  0  0  0  0  0  0  0  0  0
  -27.3043   -1.8536  -11.7756 C   0  0  0  0  0  0  0  0  0  0  0  0
  -26.6502   -1.5854  -12.9818 C   0  0  0  0  0  0  0  0  0  0  0  0
  -25.3124   -1.1800  -12.9887 C   0  0  0  0  0  0  0  0  0  0  0  0
  -24.6300   -1.0618  -11.7772 C   0  0  0  0  0  0  0  0  0  0  0  0
  -25.2830   -1.3252  -10.5678 C   0  0  0  0  0  0  0  0  0  0  0  0
  -24.5811   -0.9185  -14.1218 O   0  0  0  0  0  0  0  0  0  0  0  0
  -23.2282   -0.5270  -13.8600 C   0  0  0  0  0  0  0  0  0  0  0  0
  -23.0759    1.0037  -13.9236 C   0  0  0  0  0  0  0  0  0  0  0  0
  -21.6611    1.4355  -13.9880 N   0  0  0  0  0  0  0  0  0  0  0  0
  -20.8807    0.6351  -14.9451 C   0  0  0  0  0  0  0  0  0  0  0  0
  -19.4088    1.0438  -14.9471 C   0  0  0  0  0  0  0  0  0  0  0  0
  -19.2491    2.5238  -15.2551 C   0  0  0  0  0  0  0  0  0  0  0  0
  -20.1183    3.3541  -14.3183 C   0  0  0  0  0  0  0  0  0  0  0  0
  -21.5717    2.8686  -14.3168 C   0  0  0  0  0  0  0  0  0  0  0  0
 10 11  1  0  0  0
 10 15  2  0  0  0
 11 12  2  0  0  0
 12  1  1  0  0  0
 12 13  1  0  0  0
  1  2  1  0  0  0
  1  9  2  0  0  0
  2  3  2  0  0  0
  3  4  1  0  0  0
  4  5  1  0  0  0
  4  9  1  0  0  0
  5  6  2  0  0  0
  6 16  1  0  0  0
  6  7  1  0  0  0
 16 17  1  0  0  0
 16 21  2  0  0  0
 17 18  2  0  0  0
 18 19  1  0  0  0
 19 22  1  0  0  0
 19 20  2  0  0  0
 22 23  1  0  0  0
 23 24  1  0  0  0
 24 25  1  0  0  0
 25 26  1  0  0  0
 25 30  1  0  0  0
 26 27  1  0  0  0
 27 28  1  0  0  0
 28 29  1  0  0  0
 29 30  1  0  0  0
 20 21  1  0  0  0
  7  8  2  0  0  0
  8  9  1  0  0  0
 13 14  2  0  0  0
 14 15  1  0  0  0
M  END
> <minimizedAffinity>
-10.06371

$$$$
