CHEMBL2032019


 42 47  0  0  0  0  0  0  0  0999 V2000
  -26.4363   -2.8332   -9.9212 N   0  0  0  0  0  0  0  0  0  0  0  0
  -27.3510   -2.2641   -9.0568 C   0  0  0  0  0  0  0  0  0  0  0  0
  -27.6950   -1.0808   -9.0692 O   0  0  0  0  0  0  0  0  0  0  0  0
  -26.2157   -3.8183   -9.8217 H   0  0  0  0  0  0  0  0  0  0  0  0
  -27.9940   -3.1564   -8.0708 C   0  0  0  0  0  0  0  0  0  0  0  0
  -28.6735   -2.7734   -6.9685 C   0  0  0  0  0  0  0  0  0  0  0  0
  -29.3891   -3.8316   -6.3909 N   0  0  0  0  0  0  0  0  0  0  0  0
  -29.7203   -3.9118   -4.9696 C   0  0  0  0  0  0  0  0  0  0  0  0
  -28.9424   -4.9989   -7.0308 N   0  0  0  0  0  0  0  0  0  0  0  0
  -28.1217   -4.6373   -8.1082 C   0  0  0  0  0  0  0  0  0  0  0  0
  -27.6001   -5.3375   -8.9604 O   0  0  0  0  0  0  0  0  0  0  0  0
  -28.6845   -1.4555   -6.4100 C   0  0  0  0  0  0  0  0  0  0  0  0
  -27.6029   -0.8483   -5.8116 C   0  0  0  0  0  0  0  0  0  0  0  0
  -28.0293    0.7411   -5.3434 S   0  0  0  0  0  0  0  0  0  0  0  0
  -29.6065    0.5044   -5.9929 C   0  0  0  0  0  0  0  0  0  0  0  0
  -30.6118    1.6055   -5.9283 C   0  0  0  0  0  0  0  0  0  0  0  0
  -29.8199   -0.6765   -6.5437 N   0  0  0  0  0  0  0  0  0  0  0  0
  -29.5180   -6.2589   -6.8068 C   0  0  0  0  0  0  0  0  0  0  0  0
  -30.7806   -6.5321   -7.3424 C   0  0  0  0  0  0  0  0  0  0  0  0
  -31.3427   -7.8027   -7.2151 C   0  0  0  0  0  0  0  0  0  0  0  0
  -30.6671   -8.7988   -6.5088 C   0  0  0  0  0  0  0  0  0  0  0  0
  -29.4174   -8.5312   -5.9550 C   0  0  0  0  0  0  0  0  0  0  0  0
  -28.8305   -7.2729   -6.1223 C   0  0  0  0  0  0  0  0  0  0  0  0
  -24.5637   -0.7636  -13.0633 C   0  0  0  0  0  0  0  0  0  0  0  0
  -25.8412   -1.2935  -13.2427 C   0  0  0  0  0  0  0  0  0  0  0  0
  -26.4795   -1.9744  -12.1910 C   0  0  0  0  0  0  0  0  0  0  0  0
  -25.8178   -2.1190  -10.9753 C   0  0  0  0  0  0  0  0  0  0  0  0
  -24.6021   -1.5751  -10.7881 N   0  0  0  0  0  0  0  0  0  0  0  0
  -24.0108   -0.8985  -11.8035 C   0  0  0  0  0  0  0  0  0  0  0  0
  -23.9635   -0.1835  -14.1585 O   0  0  0  0  0  0  0  0  0  0  0  0
  -19.0951    1.3030  -15.0881 C   0  0  0  0  0  0  0  0  0  0  0  0
  -19.7527    0.1101  -15.3472 C   0  0  0  0  0  0  0  0  0  0  0  0
  -21.1098   -0.0029  -15.0728 C   0  0  0  0  0  0  0  0  0  0  0  0
  -21.8171    1.0361  -14.4354 C   0  0  0  0  0  0  0  0  0  0  0  0
  -23.1652    0.9384  -14.0112 C   0  0  0  0  0  0  0  0  0  0  0  0
  -23.8032    2.0553  -13.4735 C   0  0  0  0  0  0  0  0  0  0  0  0
  -23.0687    3.2126  -13.3132 C   0  0  0  0  0  0  0  0  0  0  0  0
  -21.7631    3.3192  -13.6354 N   0  0  0  0  0  0  0  0  0  0  0  0
  -21.1471    2.2553  -14.1808 C   0  0  0  0  0  0  0  0  0  0  0  0
  -19.8026    2.3572  -14.5067 C   0  0  0  0  0  0  0  0  0  0  0  0
  -17.4777    2.8327  -15.8411 C   0  0  0  0  0  0  0  0  0  0  0  0
  -17.7714    1.5236  -15.3538 O   0  0  0  0  0  0  0  0  0  0  0  0
 41 42  1  0  0  0
 42 31  1  0  0  0
 31 32  1  0  0  0
 31 40  2  0  0  0
 32 33  2  0  0  0
 33 34  1  0  0  0
 34 35  1  0  0  0
 34 39  2  0  0  0
 35 30  1  0  0  0
 35 36  2  0  0  0
 30 24  1  0  0  0
 24 25  1  0  0  0
 24 29  2  0  0  0
 25 26  2  0  0  0
 26 27  1  0  0  0
 27  1  1  0  0  0
 27 28  2  0  0  0
  1  2  1  0  0  0
  1  4  1  0  0  0
  2  3  2  0  0  0
  2  5  1  0  0  0
  5  6  2  0  0  0
  5 10  1  0  0  0
  6 12  1  0  0  0
  6  7  1  0  0  0
 12 13  2  0  0  0
 12 17  1  0  0  0
 13 14  1  0  0  0
 14 15  1  0  0  0
 15 16  1  0  0  0
 15 17  2  0  0  0
  7  8  1  0  0  0
  7  9  1  0  0  0
  9 18  1  0  0  0
  9 10  1  0  0  0
 18 19  1  0  0  0
 18 23  2  0  0  0
 19 20  2  0  0  0
 20 21  1  0  0  0
 21 22  2  0  0  0
 22 23  1  0  0  0
 10 11  2  0  0  0
 28 29  1  0  0  0
 36 37  1  0  0  0
 37 38  2  0  0  0
 38 39  1  0  0  0
 39 40  1  0  0  0
M  END
> <minimizedAffinity>
-8.96096

$$$$
