CHEMBL1558704


 30 33  0  0  0  0  0  0  0  0999 V2000
  -29.7951   -3.2601   -5.5357 C   0  0  0  0  0  0  0  0  0  0  0  0
  -30.0353   -2.4192   -4.5123 N   0  0  0  0  0  0  0  0  0  0  0  0
  -29.4317   -1.2278   -4.5467 C   0  0  0  0  0  0  0  0  0  0  0  0
  -28.6002   -0.7930   -5.4895 N   0  0  0  0  0  0  0  0  0  0  0  0
  -28.3932   -1.6170   -6.5164 C   0  0  0  0  0  0  0  0  0  0  0  0
  -27.5862   -1.1483   -7.5365 C   0  0  0  0  0  0  0  0  0  0  0  0
  -27.3684   -1.8909   -8.6930 C   0  0  0  0  0  0  0  0  0  0  0  0
  -27.9358   -3.1518   -8.8180 C   0  0  0  0  0  0  0  0  0  0  0  0
  -28.7188   -3.6603   -7.7846 C   0  0  0  0  0  0  0  0  0  0  0  0
  -28.9704   -2.8856   -6.6200 C   0  0  0  0  0  0  0  0  0  0  0  0
  -30.4539   -4.5104   -5.5919 N   0  0  0  0  0  0  0  0  0  0  0  0
  -31.1837   -4.5198   -6.2991 H   0  0  0  0  0  0  0  0  0  0  0  0
  -28.8279   -9.9753   -4.8550 C   0  0  0  0  0  0  0  0  0  0  0  0
  -29.2882   -8.5567   -5.0157 C   0  0  0  0  0  0  0  0  0  0  0  0
  -29.8057   -8.1101   -6.2329 C   0  0  0  0  0  0  0  0  0  0  0  0
  -30.1602   -6.7708   -6.3822 C   0  0  0  0  0  0  0  0  0  0  0  0
  -30.6406   -6.3624   -7.5693 F   0  0  0  0  0  0  0  0  0  0  0  0
  -30.0205   -5.8296   -5.3445 C   0  0  0  0  0  0  0  0  0  0  0  0
  -29.5690   -6.3028   -4.1120 C   0  0  0  0  0  0  0  0  0  0  0  0
  -29.1793   -7.6398   -3.9650 C   0  0  0  0  0  0  0  0  0  0  0  0
  -28.6657   -8.0743   -2.7740 O   0  0  0  0  0  0  0  0  0  0  0  0
  -28.5638   -7.3086   -2.1842 H   0  0  0  0  0  0  0  0  0  0  0  0
  -26.6453   -1.4642   -9.7672 O   0  0  0  0  0  0  0  0  0  0  0  0
  -27.3189   -1.4965  -11.0273 C   0  0  0  0  0  0  0  0  0  0  0  0
  -26.2806   -1.2330  -12.0712 C   0  0  0  0  0  0  0  0  0  0  0  0
  -26.4295   -1.7270  -13.3756 C   0  0  0  0  0  0  0  0  0  0  0  0
  -25.4127   -1.5450  -14.3116 C   0  0  0  0  0  0  0  0  0  0  0  0
  -24.2481   -0.8676  -13.9505 C   0  0  0  0  0  0  0  0  0  0  0  0
  -24.0952   -0.3692  -12.6575 C   0  0  0  0  0  0  0  0  0  0  0  0
  -25.1078   -0.5533  -11.7208 C   0  0  0  0  0  0  0  0  0  0  0  0
 13 14  1  0  0  0
 14 15  1  0  0  0
 14 20  2  0  0  0
 15 16  2  0  0  0
 16 17  1  0  0  0
 16 18  1  0  0  0
 18 11  1  0  0  0
 18 19  2  0  0  0
 11  1  1  0  0  0
 11 12  1  0  0  0
  1  2  1  0  0  0
  1 10  2  0  0  0
  2  3  2  0  0  0
  3  4  1  0  0  0
  4  5  2  0  0  0
  5  6  1  0  0  0
  5 10  1  0  0  0
  6  7  2  0  0  0
  7 23  1  0  0  0
  7  8  1  0  0  0
 23 24  1  0  0  0
 24 25  1  0  0  0
 25 26  1  0  0  0
 25 30  2  0  0  0
 26 27  2  0  0  0
 27 28  1  0  0  0
 28 29  2  0  0  0
 29 30  1  0  0  0
  8  9  2  0  0  0
  9 10  1  0  0  0
 19 20  1  0  0  0
 20 21  1  0  0  0
 21 22  1  0  0  0
M  END
> <minimizedAffinity>
-10.06049

$$$$
