CHEMBL1999910


 28 31  0  0  0  0  0  0  0  0999 V2000
  -29.7375   -5.8711   -7.2071 C   0  0  0  0  0  0  0  0  0  0  0  0
  -30.4257   -5.5049   -6.0393 C   0  0  0  0  0  0  0  0  0  0  0  0
  -30.2819   -4.2232   -5.5019 C   0  0  0  0  0  0  0  0  0  0  0  0
  -29.4600   -3.3187   -6.1598 C   0  0  0  0  0  0  0  0  0  0  0  0
  -28.7802   -3.6926   -7.3374 C   0  0  0  0  0  0  0  0  0  0  0  0
  -28.8970   -4.9680   -7.8646 C   0  0  0  0  0  0  0  0  0  0  0  0
  -28.0122   -2.5010   -7.7910 C   0  0  0  0  0  0  0  0  0  0  0  0
  -27.2375   -2.3008   -8.8107 N   0  0  0  0  0  0  0  0  0  0  0  0
  -27.1161   -3.4267   -9.6220 O   0  0  0  0  0  0  0  0  0  0  0  0
  -28.2848   -1.4268   -6.8067 C   0  0  0  0  0  0  0  0  0  0  0  0
  -27.8172   -0.1246   -6.7756 C   0  0  0  0  0  0  0  0  0  0  0  0
  -28.2416    0.6850   -5.7203 C   0  0  0  0  0  0  0  0  0  0  0  0
  -29.1096    0.1807   -4.7345 C   0  0  0  0  0  0  0  0  0  0  0  0
  -29.5711   -1.1404   -4.7872 C   0  0  0  0  0  0  0  0  0  0  0  0
  -29.1526   -1.9438   -5.8360 C   0  0  0  0  0  0  0  0  0  0  0  0
  -26.4864   -3.1245  -10.3023 H   0  0  0  0  0  0  0  0  0  0  0  0
  -29.8646   -7.1963   -7.7046 N   0  0  0  0  0  0  0  0  0  0  0  0
  -30.7590   -7.4675   -8.1094 H   0  0  0  0  0  0  0  0  0  0  0  0
  -28.0697   -7.8584   -6.0770 O   0  0  0  0  0  0  0  0  0  0  0  0
  -29.1268   -8.4608   -6.8618 S   0  0  0  0  0  0  0  0  0  0  0  0
  -30.1351   -9.2980   -6.2507 O   0  0  0  0  0  0  0  0  0  0  0  0
  -28.3389   -9.4144   -8.1450 C   0  0  0  0  0  0  0  0  0  0  0  0
  -27.0905  -10.0009   -7.9092 C   0  0  0  0  0  0  0  0  0  0  0  0
  -26.4439  -10.6853   -8.9397 C   0  0  0  0  0  0  0  0  0  0  0  0
  -27.0323  -10.7627  -10.2031 C   0  0  0  0  0  0  0  0  0  0  0  0
  -28.2719  -10.1620  -10.4331 C   0  0  0  0  0  0  0  0  0  0  0  0
  -28.9788  -10.2440  -11.9990 Cl  0  0  0  0  0  0  0  0  0  0  0  0
  -28.9330   -9.4869   -9.4098 C   0  0  0  0  0  0  0  0  0  0  0  0
 19 20  2  0  0  0
 20 21  2  0  0  0
 20 17  1  0  0  0
 20 22  1  0  0  0
 17  1  1  0  0  0
 17 18  1  0  0  0
  1  2  1  0  0  0
  1  6  2  0  0  0
  2  3  2  0  0  0
  3  4  1  0  0  0
  4  5  2  0  0  0
  4 15  1  0  0  0
  5  6  1  0  0  0
  5  7  1  0  0  0
  7  8  2  0  0  0
  7 10  1  0  0  0
  8  9  1  0  0  0
  9 16  1  0  0  0
 10 11  1  0  0  0
 10 15  2  0  0  0
 11 12  2  0  0  0
 12 13  1  0  0  0
 13 14  2  0  0  0
 14 15  1  0  0  0
 22 23  1  0  0  0
 22 28  2  0  0  0
 23 24  2  0  0  0
 24 25  1  0  0  0
 25 26  2  0  0  0
 26 27  1  0  0  0
 26 28  1  0  0  0
M  END
> <minimizedAffinity>
-10.01025

$$$$
