CHEMBL4088100


 37 40  0  0  0  0  0  0  0  0999 V2000
  -18.1095    2.3686  -15.5564 C   0  0  0  0  0  0  0  0  0  0  0  0
  -17.2624    1.2627  -15.7482 C   0  0  0  0  0  0  0  0  0  0  0  0
  -15.9869    1.4079  -16.3140 C   0  0  0  0  0  0  0  0  0  0  0  0
  -15.5258    2.6613  -16.7273 C   0  0  0  0  0  0  0  0  0  0  0  0
  -16.3301    3.7630  -16.4843 C   0  0  0  0  0  0  0  0  0  0  0  0
  -17.6017    3.6226  -15.9244 C   0  0  0  0  0  0  0  0  0  0  0  0
  -23.6443   -1.6810  -13.3861 N   0  0  0  0  0  0  0  0  0  0  0  0
  -23.1213   -0.4233  -13.5996 C   0  0  0  0  0  0  0  0  0  0  0  0
  -23.9372    0.6158  -13.4235 N   0  0  0  0  0  0  0  0  0  0  0  0
  -23.3964    1.8345  -13.6190 C   0  0  0  0  0  0  0  0  0  0  0  0
  -22.0802    2.0418  -14.0040 C   0  0  0  0  0  0  0  0  0  0  0  0
  -21.5132    3.3145  -14.2040 C   0  0  0  0  0  0  0  0  0  0  0  0
  -20.1994    3.4230  -14.6552 C   0  0  0  0  0  0  0  0  0  0  0  0
  -19.4348    2.2792  -14.9208 C   0  0  0  0  0  0  0  0  0  0  0  0
  -20.0239    1.0238  -14.6359 C   0  0  0  0  0  0  0  0  0  0  0  0
  -21.3347    0.8797  -14.1941 C   0  0  0  0  0  0  0  0  0  0  0  0
  -21.8489   -0.3422  -14.0003 N   0  0  0  0  0  0  0  0  0  0  0  0
  -24.6496   -1.6557  -13.4776 H   0  0  0  0  0  0  0  0  0  0  0  0
  -23.1403   -2.3644  -13.9318 H   0  0  0  0  0  0  0  0  0  0  0  0
  -14.2804    2.7157  -17.3856 N   0  0  0  0  0  0  0  0  0  0  0  0
  -13.8840    3.6416  -17.4873 H   0  0  0  0  0  0  0  0  0  0  0  0
  -13.4512    1.6941  -17.8528 C   0  0  0  0  0  0  0  0  0  0  0  0
  -13.7458    0.6020  -19.0978 S   0  0  0  0  0  0  0  0  0  0  0  0
  -12.3297    1.5927  -17.0081 N   0  0  0  0  0  0  0  0  0  0  0  0
  -11.5439    2.1318  -17.3548 H   0  0  0  0  0  0  0  0  0  0  0  0
  -12.4406    1.5840  -15.5906 C   0  0  0  0  0  0  0  0  0  0  0  0
  -13.1171    0.5208  -14.9655 C   0  0  0  0  0  0  0  0  0  0  0  0
  -13.3366    0.5311  -13.5925 C   0  0  0  0  0  0  0  0  0  0  0  0
  -12.8848    1.6250  -12.8477 C   0  0  0  0  0  0  0  0  0  0  0  0
  -12.1547    2.6526  -13.4484 C   0  0  0  0  0  0  0  0  0  0  0  0
  -11.9047    2.6195  -14.8194 C   0  0  0  0  0  0  0  0  0  0  0  0
  -10.9226    4.0403  -15.6025 Br  0  0  0  0  0  0  0  0  0  0  0  0
  -13.9756   -0.4271  -12.8647 O   0  0  0  0  0  0  0  0  0  0  0  0
  -15.3944   -0.4760  -12.8539 C   0  0  0  0  0  0  0  0  0  0  0  0
  -15.9672    0.7458  -12.9031 F   0  0  0  0  0  0  0  0  0  0  0  0
  -15.7994   -1.1549  -13.9525 F   0  0  0  0  0  0  0  0  0  0  0  0
  -15.8355   -1.1361  -11.7642 F   0  0  0  0  0  0  0  0  0  0  0  0
  7  8  1  0  0  0
  7 18  1  0  0  0
  7 19  1  0  0  0
  8  9  1  0  0  0
  8 17  2  0  0  0
  9 10  2  0  0  0
 10 11  1  0  0  0
 11 12  1  0  0  0
 11 16  2  0  0  0
 12 13  2  0  0  0
 13 14  1  0  0  0
 14  1  1  0  0  0
 14 15  2  0  0  0
  1  2  1  0  0  0
  1  6  2  0  0  0
  2  3  2  0  0  0
  3  4  1  0  0  0
  4 20  1  0  0  0
  4  5  2  0  0  0
 20 22  1  0  0  0
 20 21  1  0  0  0
 22 23  2  0  0  0
 22 24  1  0  0  0
 24 26  1  0  0  0
 24 25  1  0  0  0
 26 27  1  0  0  0
 26 31  2  0  0  0
 27 28  2  0  0  0
 28 33  1  0  0  0
 28 29  1  0  0  0
 33 34  1  0  0  0
 34 35  1  0  0  0
 34 36  1  0  0  0
 34 37  1  0  0  0
 29 30  2  0  0  0
 30 31  1  0  0  0
 31 32  1  0  0  0
  5  6  1  0  0  0
 15 16  1  0  0  0
 16 17  1  0  0  0
M  END
> <minimizedAffinity>
-8.66688

$$$$
