CHEMBL3690503


 34 37  0  0  0  0  0  0  0  0999 V2000
  -14.3014   -2.5082  -12.3985 C   0  0  0  0  0  0  0  0  0  0  0  0
  -15.4883   -1.7078  -12.0931 C   0  0  0  0  0  0  0  0  0  0  0  0
  -15.8189   -0.6725  -12.8853 C   0  0  0  0  0  0  0  0  0  0  0  0
  -15.0346   -0.3785  -14.0040 N   0  0  0  0  0  0  0  0  0  0  0  0
  -15.1688    0.5861  -14.9982 C   0  0  0  0  0  0  0  0  0  0  0  0
  -14.0370    0.4034  -15.7866 C   0  0  0  0  0  0  0  0  0  0  0  0
  -13.2472   -0.6170  -15.3489 N   0  0  0  0  0  0  0  0  0  0  0  0
  -13.8685   -1.0936  -14.2963 C   0  0  0  0  0  0  0  0  0  0  0  0
  -13.5231   -2.1865  -13.4539 C   0  0  0  0  0  0  0  0  0  0  0  0
  -13.9061   -7.4445  -11.7243 C   0  0  0  0  0  0  0  0  0  0  0  0
  -13.7051   -6.0364  -11.2531 C   0  0  0  0  0  0  0  0  0  0  0  0
  -13.1313   -5.7627  -10.0096 C   0  0  0  0  0  0  0  0  0  0  0  0
  -12.9641   -4.4377   -9.6151 C   0  0  0  0  0  0  0  0  0  0  0  0
  -12.3557   -4.1013   -8.2867 C   0  0  0  0  0  0  0  0  0  0  0  0
  -13.3350   -3.3931  -10.3922 N   0  0  0  0  0  0  0  0  0  0  0  0
  -13.8969   -3.6708  -11.5912 C   0  0  0  0  0  0  0  0  0  0  0  0
  -14.0957   -4.9650  -12.0578 C   0  0  0  0  0  0  0  0  0  0  0  0
  -16.2324    1.5874  -15.1826 C   0  0  0  0  0  0  0  0  0  0  0  0
  -15.9922    2.6323  -16.0903 C   0  0  0  0  0  0  0  0  0  0  0  0
  -16.9767    3.5648  -16.3893 C   0  0  0  0  0  0  0  0  0  0  0  0
  -18.2283    3.4639  -15.7931 C   0  0  0  0  0  0  0  0  0  0  0  0
  -18.5243    2.4228  -14.9074 C   0  0  0  0  0  0  0  0  0  0  0  0
  -17.5087    1.4995  -14.5888 C   0  0  0  0  0  0  0  0  0  0  0  0
  -19.8219    2.2519  -14.3438 N   0  0  0  0  0  0  0  0  0  0  0  0
  -20.6412    1.1672  -14.5479 C   0  0  0  0  0  0  0  0  0  0  0  0
  -20.4003    0.1710  -15.2196 O   0  0  0  0  0  0  0  0  0  0  0  0
  -21.8703    1.2873  -13.9363 N   0  0  0  0  0  0  0  0  0  0  0  0
  -20.1241    2.9461  -13.6787 H   0  0  0  0  0  0  0  0  0  0  0  0
  -21.9258    1.8565  -13.1052 H   0  0  0  0  0  0  0  0  0  0  0  0
  -22.8010    0.1533  -14.0507 C   0  0  0  0  0  0  0  0  0  0  0  0
  -23.0690   -0.6472  -12.7642 C   0  0  0  0  0  0  0  0  0  0  0  0
  -24.3299   -0.4775  -12.3059 F   0  0  0  0  0  0  0  0  0  0  0  0
  -22.9205   -1.9741  -13.0128 F   0  0  0  0  0  0  0  0  0  0  0  0
  -22.2113   -0.3321  -11.7710 F   0  0  0  0  0  0  0  0  0  0  0  0
 10 11  1  0  0  0
 11 12  1  0  0  0
 11 17  2  0  0  0
 12 13  2  0  0  0
 13 14  1  0  0  0
 13 15  1  0  0  0
 15 16  2  0  0  0
 16  1  1  0  0  0
 16 17  1  0  0  0
  1  2  1  0  0  0
  1  9  2  0  0  0
  2  3  2  0  0  0
  3  4  1  0  0  0
  4  5  1  0  0  0
  4  8  1  0  0  0
  5 18  1  0  0  0
  5  6  2  0  0  0
 18 19  1  0  0  0
 18 23  2  0  0  0
 19 20  2  0  0  0
 20 21  1  0  0  0
 21 22  2  0  0  0
 22 24  1  0  0  0
 22 23  1  0  0  0
 24 25  1  0  0  0
 24 28  1  0  0  0
 25 26  2  0  0  0
 25 27  1  0  0  0
 27 30  1  0  0  0
 27 29  1  0  0  0
 30 31  1  0  0  0
 31 32  1  0  0  0
 31 33  1  0  0  0
 31 34  1  0  0  0
  6  7  1  0  0  0
  7  8  2  0  0  0
  8  9  1  0  0  0
M  END
> <minimizedAffinity>
-9.62929

$$$$
