CHEMBL602043


 27 30  0  0  0  0  0  0  0  0999 V2000
  -13.4876  -11.1512  -17.1659 O   0  0  0  0  0  0  0  0  0  0  0  0
  -13.4015   -9.9267  -17.1027 C   0  0  0  0  0  0  0  0  0  0  0  0
  -12.6928   -9.2450  -15.9516 C   0  0  0  0  0  0  0  0  0  0  0  0
  -13.6227   -8.3457  -15.2190 C   0  0  0  0  0  0  0  0  0  0  0  0
  -14.0433   -8.6007  -13.9313 C   0  0  0  0  0  0  0  0  0  0  0  0
  -14.9292   -7.8359  -13.2719 N   0  0  0  0  0  0  0  0  0  0  0  0
  -15.3875   -6.7533  -13.9122 C   0  0  0  0  0  0  0  0  0  0  0  0
  -15.0114   -6.4188  -15.1620 N   0  0  0  0  0  0  0  0  0  0  0  0
  -14.1545   -7.2234  -15.8159 C   0  0  0  0  0  0  0  0  0  0  0  0
  -13.8424   -6.8445  -17.2042 C   0  0  0  0  0  0  0  0  0  0  0  0
  -13.6496   -5.5016  -17.5410 C   0  0  0  0  0  0  0  0  0  0  0  0
  -13.3711   -5.0410  -18.7869 N   0  0  0  0  0  0  0  0  0  0  0  0
  -13.3443   -5.9488  -19.7780 C   0  0  0  0  0  0  0  0  0  0  0  0
  -13.5693   -7.2976  -19.5800 C   0  0  0  0  0  0  0  0  0  0  0  0
  -13.7644   -7.7581  -18.2744 C   0  0  0  0  0  0  0  0  0  0  0  0
  -13.8638   -9.1586  -18.1343 N   0  0  0  0  0  0  0  0  0  0  0  0
  -14.1265   -9.7085  -18.9449 H   0  0  0  0  0  0  0  0  0  0  0  0
  -16.3380   -5.9880  -13.2413 N   0  0  0  0  0  0  0  0  0  0  0  0
  -17.0559   -6.5674  -12.8360 H   0  0  0  0  0  0  0  0  0  0  0  0
  -16.2056   -4.6901  -12.7342 C   0  0  0  0  0  0  0  0  0  0  0  0
  -16.0526   -3.6138  -13.6177 C   0  0  0  0  0  0  0  0  0  0  0  0
  -15.8241   -2.3206  -13.1345 C   0  0  0  0  0  0  0  0  0  0  0  0
  -15.7587   -2.0859  -11.7608 C   0  0  0  0  0  0  0  0  0  0  0  0
  -15.9279   -3.1507  -10.8830 C   0  0  0  0  0  0  0  0  0  0  0  0
  -15.8792   -2.9825   -9.5336 O   0  0  0  0  0  0  0  0  0  0  0  0
  -16.1479   -4.4331  -11.3586 C   0  0  0  0  0  0  0  0  0  0  0  0
  -15.6124   -2.0676   -9.3433 H   0  0  0  0  0  0  0  0  0  0  0  0
  1  2  2  0  0  0
  2  3  1  0  0  0
  2 16  1  0  0  0
  3  4  1  0  0  0
  4  5  1  0  0  0
  4  9  2  0  0  0
  5  6  2  0  0  0
  6  7  1  0  0  0
  7 18  1  0  0  0
  7  8  2  0  0  0
 18 20  1  0  0  0
 18 19  1  0  0  0
 20 21  1  0  0  0
 20 26  2  0  0  0
 21 22  2  0  0  0
 22 23  1  0  0  0
 23 24  2  0  0  0
 24 25  1  0  0  0
 24 26  1  0  0  0
 25 27  1  0  0  0
  8  9  1  0  0  0
  9 10  1  0  0  0
 10 11  1  0  0  0
 10 15  2  0  0  0
 11 12  2  0  0  0
 12 13  1  0  0  0
 13 14  2  0  0  0
 14 15  1  0  0  0
 15 16  1  0  0  0
 16 17  1  0  0  0
M  END
> <minimizedAffinity>
-8.27455

$$$$
