CHEMBL101797


 18 20  0  0  0  0  0  0  0  0999 V2000
  -32.3925   -5.2627   -2.6140 O   0  0  0  0  0  0  0  0  0  0  0  0
  -31.5395   -4.6856   -3.2586 C   0  0  0  0  0  0  0  0  0  0  0  0
  -30.9646   -3.4567   -2.9813 N   0  0  0  0  0  0  0  0  0  0  0  0
  -30.0188   -3.1116   -3.9434 C   0  0  0  0  0  0  0  0  0  0  0  0
  -29.2707   -1.9513   -3.9822 C   0  0  0  0  0  0  0  0  0  0  0  0
  -28.3995   -1.7864   -5.0601 C   0  0  0  0  0  0  0  0  0  0  0  0
  -28.3020   -2.7695   -6.0610 C   0  0  0  0  0  0  0  0  0  0  0  0
  -29.0617   -3.9432   -5.9933 C   0  0  0  0  0  0  0  0  0  0  0  0
  -29.9151   -4.1117   -4.9181 C   0  0  0  0  0  0  0  0  0  0  0  0
  -30.8492   -5.1658   -4.5087 C   0  0  0  0  0  0  0  0  0  0  0  0
  -31.1145   -6.3930   -4.9803 C   0  0  0  0  0  0  0  0  0  0  0  0
  -31.2282   -2.8980   -2.1850 H   0  0  0  0  0  0  0  0  0  0  0  0
  -30.4200   -6.9686   -6.0642 C   0  0  0  0  0  0  0  0  0  0  0  0
  -30.6486   -7.0544   -7.4217 C   0  0  0  0  0  0  0  0  0  0  0  0
  -29.5757   -7.7873   -7.9882 C   0  0  0  0  0  0  0  0  0  0  0  0
  -28.7301   -8.1401   -6.9601 C   0  0  0  0  0  0  0  0  0  0  0  0
  -29.2558   -7.6477   -5.7946 N   0  0  0  0  0  0  0  0  0  0  0  0
  -28.8448   -7.7565   -4.8757 H   0  0  0  0  0  0  0  0  0  0  0  0
  1  2  2  0  0  0
  2  3  1  0  0  0
  2 10  1  0  0  0
  3  4  1  0  0  0
  3 12  1  0  0  0
  4  5  1  0  0  0
  4  9  2  0  0  0
  5  6  2  0  0  0
  6  7  1  0  0  0
  7  8  2  0  0  0
  8  9  1  0  0  0
  9 10  1  0  0  0
 10 11  2  0  0  0
 11 13  1  0  0  0
 13 14  2  0  0  0
 13 17  1  0  0  0
 14 15  1  0  0  0
 15 16  2  0  0  0
 16 17  1  0  0  0
 17 18  1  0  0  0
M  END
> <minimizedAffinity>
-6.81981

$$$$
