CHEMBL3935232


 37 40  0  0  0  0  0  0  0  0999 V2000
  -18.5249    2.0190  -15.4825 C   0  0  0  0  0  0  0  0  0  0  0  0
  -19.2666    3.1952  -15.6464 C   0  0  0  0  0  0  0  0  0  0  0  0
  -20.5176    3.3920  -15.0944 C   0  0  0  0  0  0  0  0  0  0  0  0
  -21.1735    2.4019  -14.4440 C   0  0  0  0  0  0  0  0  0  0  0  0
  -22.3013    2.8134  -13.8650 N   0  0  0  0  0  0  0  0  0  0  0  0
  -23.1490    1.8496  -13.5261 C   0  0  0  0  0  0  0  0  0  0  0  0
  -22.9150    0.5285  -13.8352 C   0  0  0  0  0  0  0  0  0  0  0  0
  -21.6615    0.0942  -14.2365 N   0  0  0  0  0  0  0  0  0  0  0  0
  -20.7095    1.0744  -14.5229 C   0  0  0  0  0  0  0  0  0  0  0  0
  -19.3057    0.9390  -14.9443 C   0  0  0  0  0  0  0  0  0  0  0  0
  -24.1268   -0.2426  -14.1033 C   0  0  0  0  0  0  0  0  0  0  0  0
  -24.7157   -0.7698  -15.2713 C   0  0  0  0  0  0  0  0  0  0  0  0
  -25.7398   -1.5987  -15.0122 N   0  0  0  0  0  0  0  0  0  0  0  0
  -25.8173   -1.6195  -13.6588 N   0  0  0  0  0  0  0  0  0  0  0  0
  -24.8060   -0.9026  -13.0836 C   0  0  0  0  0  0  0  0  0  0  0  0
  -27.0312   -2.1392  -13.0311 C   0  0  0  0  0  0  0  0  0  0  0  0
  -27.3457   -1.6539  -11.6261 C   0  0  0  0  0  0  0  0  0  0  0  0
  -27.9747   -0.6245  -11.3943 O   0  0  0  0  0  0  0  0  0  0  0  0
  -26.9570   -2.5237  -10.6185 N   0  0  0  0  0  0  0  0  0  0  0  0
  -27.2967   -2.3204   -9.2242 C   0  0  0  0  0  0  0  0  0  0  0  0
  -26.4077   -3.3446  -10.8420 H   0  0  0  0  0  0  0  0  0  0  0  0
  -17.1317    2.0009  -15.8659 N   0  0  0  0  0  0  0  0  0  0  0  0
  -15.9951    1.2161  -15.3902 C   0  0  0  0  0  0  0  0  0  0  0  0
  -14.8441    1.0273  -16.1975 C   0  0  0  0  0  0  0  0  0  0  0  0
  -13.8095    0.1397  -15.8998 C   0  0  0  0  0  0  0  0  0  0  0  0
  -13.8123   -0.4779  -14.6672 C   0  0  0  0  0  0  0  0  0  0  0  0
  -14.8190   -0.1666  -13.7480 C   0  0  0  0  0  0  0  0  0  0  0  0
  -15.9187    0.6453  -14.1168 C   0  0  0  0  0  0  0  0  0  0  0  0
  -12.7658   -0.1689  -16.7339 O   0  0  0  0  0  0  0  0  0  0  0  0
  -11.4805    0.3464  -16.3842 C   0  0  0  0  0  0  0  0  0  0  0  0
  -14.8100   -0.6262  -12.4495 O   0  0  0  0  0  0  0  0  0  0  0  0
  -15.4977   -1.8626  -12.2416 C   0  0  0  0  0  0  0  0  0  0  0  0
  -16.6762    3.1688  -16.7103 C   0  0  0  0  0  0  0  0  0  0  0  0
  -16.0721    4.3249  -15.8800 C   0  0  0  0  0  0  0  0  0  0  0  0
  -14.9537    4.5250  -18.0019 C   0  0  0  0  0  0  0  0  0  0  0  0
  -14.9717    4.9753  -16.6162 N   0  0  0  0  0  0  0  0  0  0  0  0
  -15.1129    5.9869  -16.6004 H   0  0  0  0  0  0  0  0  0  0  0  0
 35 36  1  0  0  0
 36 34  1  0  0  0
 36 37  1  0  0  0
 34 33  1  0  0  0
 33 22  1  0  0  0
 22 23  1  0  0  0
 22  1  1  0  0  0
 23 24  1  0  0  0
 23 28  2  0  0  0
 24 25  2  0  0  0
 25 29  1  0  0  0
 25 26  1  0  0  0
 29 30  1  0  0  0
 26 27  2  0  0  0
 27 31  1  0  0  0
 27 28  1  0  0  0
 31 32  1  0  0  0
  1  2  1  0  0  0
  1 10  2  0  0  0
  2  3  2  0  0  0
  3  4  1  0  0  0
  4  5  1  0  0  0
  4  9  2  0  0  0
  5  6  2  0  0  0
  6  7  1  0  0  0
  7 11  1  0  0  0
  7  8  2  0  0  0
 11 12  1  0  0  0
 11 15  2  0  0  0
 12 13  2  0  0  0
 13 14  1  0  0  0
 14 16  1  0  0  0
 14 15  1  0  0  0
 16 17  1  0  0  0
 17 18  2  0  0  0
 17 19  1  0  0  0
 19 20  1  0  0  0
 19 21  1  0  0  0
  8  9  1  0  0  0
  9 10  1  0  0  0
M  END
> <minimizedAffinity>
-8.48857

$$$$
