CHEMBL378058


 27 31  0  0  0  0  0  0  0  0999 V2000
  -30.6912   -8.8398   -7.6063 C   0  0  0  0  0  0  0  0  0  0  0  0
  -32.0203   -9.0000   -7.4157 N   0  0  0  0  0  0  0  0  0  0  0  0
  -32.3422   -8.0926   -6.4567 N   0  0  0  0  0  0  0  0  0  0  0  0
  -31.2683   -7.3808   -6.0642 C   0  0  0  0  0  0  0  0  0  0  0  0
  -30.1945   -7.8245   -6.7829 C   0  0  0  0  0  0  0  0  0  0  0  0
  -28.9357   -7.0823   -6.4925 C   0  0  0  0  0  0  0  0  0  0  0  0
  -29.5215   -6.1040   -5.4599 C   0  0  0  0  0  0  0  0  0  0  0  0
  -28.8349   -5.1001   -4.7993 C   0  0  0  0  0  0  0  0  0  0  0  0
  -29.5366   -4.2996   -3.8807 C   0  0  0  0  0  0  0  0  0  0  0  0
  -30.9167   -4.5305   -3.6479 C   0  0  0  0  0  0  0  0  0  0  0  0
  -31.6161   -5.5395   -4.3199 C   0  0  0  0  0  0  0  0  0  0  0  0
  -30.9061   -6.3063   -5.2133 C   0  0  0  0  0  0  0  0  0  0  0  0
  -33.3082   -8.0235   -6.1525 H   0  0  0  0  0  0  0  0  0  0  0  0
  -27.1589   -9.8634  -11.1533 C   0  0  0  0  0  0  0  0  0  0  0  0
  -28.2986  -10.1271  -10.2321 C   0  0  0  0  0  0  0  0  0  0  0  0
  -28.8863  -11.3614  -10.0344 C   0  0  0  0  0  0  0  0  0  0  0  0
  -30.1081  -11.3234   -8.8448 S   0  0  0  0  0  0  0  0  0  0  0  0
  -29.9088   -9.6453   -8.5972 C   0  0  0  0  0  0  0  0  0  0  0  0
  -28.9290   -9.1269   -9.4189 C   0  0  0  0  0  0  0  0  0  0  0  0
  -28.8139   -3.1917   -3.1373 C   0  0  0  0  0  0  0  0  0  0  0  0
  -28.7124   -1.9429   -3.9046 N   0  0  0  0  0  0  0  0  0  0  0  0
  -27.3817   -1.7624   -4.5169 C   0  0  0  0  0  0  0  0  0  0  0  0
  -27.3061   -0.4470   -5.3261 C   0  0  0  0  0  0  0  0  0  0  0  0
  -28.3310   -0.3075   -6.3801 N   0  0  0  0  0  0  0  0  0  0  0  0
  -28.0414   -1.1647   -7.5258 C   0  0  0  0  0  0  0  0  0  0  0  0
  -29.6596   -0.5947   -5.8009 C   0  0  0  0  0  0  0  0  0  0  0  0
  -29.7459   -1.8907   -4.9568 C   0  0  0  0  0  0  0  0  0  0  0  0
 14 15  1  0  0  0
 15 16  2  0  0  0
 15 19  1  0  0  0
 16 17  1  0  0  0
 17 18  1  0  0  0
 18  1  1  0  0  0
 18 19  2  0  0  0
  1  2  2  0  0  0
  1  5  1  0  0  0
  2  3  1  0  0  0
  3  4  1  0  0  0
  3 13  1  0  0  0
  4  5  2  0  0  0
  4 12  1  0  0  0
  5  6  1  0  0  0
  6  7  1  0  0  0
  7  8  1  0  0  0
  7 12  2  0  0  0
  8  9  2  0  0  0
  9 20  1  0  0  0
  9 10  1  0  0  0
 20 21  1  0  0  0
 21 22  1  0  0  0
 21 27  1  0  0  0
 22 23  1  0  0  0
 23 24  1  0  0  0
 24 25  1  0  0  0
 24 26  1  0  0  0
 26 27  1  0  0  0
 10 11  2  0  0  0
 11 12  1  0  0  0
M  END
> <minimizedAffinity>
-8.72740

$$$$
