CHEMBL222315


 29 32  0  0  0  0  0  0  0  0999 V2000
  -14.0437   -4.4761  -12.6139 C   0  0  0  0  0  0  0  0  0  0  0  0
  -15.2763   -4.1154  -12.0676 C   0  0  0  0  0  0  0  0  0  0  0  0
  -15.9503   -2.9556  -12.4662 C   0  0  0  0  0  0  0  0  0  0  0  0
  -15.4719   -2.1607  -13.5053 C   0  0  0  0  0  0  0  0  0  0  0  0
  -14.2915   -2.5605  -14.1390 C   0  0  0  0  0  0  0  0  0  0  0  0
  -13.5817   -3.6913  -13.6881 C   0  0  0  0  0  0  0  0  0  0  0  0
  -15.5455   -7.1946  -13.9963 N   0  0  0  0  0  0  0  0  0  0  0  0
  -14.5488   -7.7072  -13.2619 C   0  0  0  0  0  0  0  0  0  0  0  0
  -14.3590   -9.0227  -13.2392 N   0  0  0  0  0  0  0  0  0  0  0  0
  -13.3156   -9.1805  -12.4253 N   0  0  0  0  0  0  0  0  0  0  0  0
  -12.8116   -8.0148  -11.9174 C   0  0  0  0  0  0  0  0  0  0  0  0
  -11.7399   -7.8101  -11.0456 C   0  0  0  0  0  0  0  0  0  0  0  0
  -11.4350   -6.4965  -10.7113 C   0  0  0  0  0  0  0  0  0  0  0  0
  -12.1812   -5.4395  -11.2300 C   0  0  0  0  0  0  0  0  0  0  0  0
  -13.2806   -5.6367  -12.1041 C   0  0  0  0  0  0  0  0  0  0  0  0
  -13.5969   -6.9889  -12.4562 C   0  0  0  0  0  0  0  0  0  0  0  0
  -16.1888   -7.8604  -14.4091 H   0  0  0  0  0  0  0  0  0  0  0  0
  -15.9757   -6.3125  -13.7490 H   0  0  0  0  0  0  0  0  0  0  0  0
  -12.9848  -10.1216  -12.2513 H   0  0  0  0  0  0  0  0  0  0  0  0
  -16.1259   -0.9832  -13.9509 N   0  0  0  0  0  0  0  0  0  0  0  0
  -15.9685    0.2873  -13.4193 C   0  0  0  0  0  0  0  0  0  0  0  0
  -15.2130    0.5904  -12.4973 O   0  0  0  0  0  0  0  0  0  0  0  0
  -16.7434   -1.0883  -14.7463 H   0  0  0  0  0  0  0  0  0  0  0  0
  -16.7883    1.3904  -14.0663 C   0  0  0  0  0  0  0  0  0  0  0  0
  -18.2388    0.9997  -14.3504 C   0  0  0  0  0  0  0  0  0  0  0  0
  -19.0216    2.2291  -14.8141 C   0  0  0  0  0  0  0  0  0  0  0  0
  -18.3672    2.8945  -16.0254 C   0  0  0  0  0  0  0  0  0  0  0  0
  -16.8869    3.1990  -15.7944 C   0  0  0  0  0  0  0  0  0  0  0  0
  -16.1224    1.9636  -15.3190 C   0  0  0  0  0  0  0  0  0  0  0  0
  7  8  1  0  0  0
  7 17  1  0  0  0
  7 18  1  0  0  0
  8  9  2  0  0  0
  8 16  1  0  0  0
  9 10  1  0  0  0
 10 11  1  0  0  0
 10 19  1  0  0  0
 11 12  1  0  0  0
 11 16  2  0  0  0
 12 13  2  0  0  0
 13 14  1  0  0  0
 14 15  2  0  0  0
 15  1  1  0  0  0
 15 16  1  0  0  0
  1  2  1  0  0  0
  1  6  2  0  0  0
  2  3  2  0  0  0
  3  4  1  0  0  0
  4 20  1  0  0  0
  4  5  2  0  0  0
 20 21  1  0  0  0
 20 23  1  0  0  0
 21 22  2  0  0  0
 21 24  1  0  0  0
 24 25  1  0  0  0
 24 29  1  0  0  0
 25 26  1  0  0  0
 26 27  1  0  0  0
 27 28  1  0  0  0
 28 29  1  0  0  0
  5  6  1  0  0  0
M  END
> <minimizedAffinity>
-8.35019

$$$$
