CHEMBL3128237


 39 43  0  0  0  0  0  0  0  0999 V2000
  -22.7965   -0.2463  -12.6906 C   0  0  0  0  0  0  0  0  0  0  0  0
  -26.0310   -2.1331  -11.8694 C   0  0  0  0  0  0  0  0  0  0  0  0
  -26.6983   -2.0172  -13.0925 C   0  0  0  0  0  0  0  0  0  0  0  0
  -26.1009   -1.3848  -14.1842 C   0  0  0  0  0  0  0  0  0  0  0  0
  -24.8340   -0.8276  -14.0599 C   0  0  0  0  0  0  0  0  0  0  0  0
  -24.1580   -0.8873  -12.8346 C   0  0  0  0  0  0  0  0  0  0  0  0
  -24.7538   -1.5662  -11.7525 C   0  0  0  0  0  0  0  0  0  0  0  0
  -27.6329   -0.9863   -9.7192 O   0  0  0  0  0  0  0  0  0  0  0  0
  -27.3071   -2.1653   -9.7202 C   0  0  0  0  0  0  0  0  0  0  0  0
  -27.5892   -3.0437   -8.6809 N   0  0  0  0  0  0  0  0  0  0  0  0
  -26.5826   -2.7740  -10.7342 N   0  0  0  0  0  0  0  0  0  0  0  0
  -27.1235   -3.9378   -8.7009 H   0  0  0  0  0  0  0  0  0  0  0  0
  -26.4837   -3.7781  -10.6937 H   0  0  0  0  0  0  0  0  0  0  0  0
  -28.2511   -2.7047   -7.4742 C   0  0  0  0  0  0  0  0  0  0  0  0
  -27.7921   -1.7194   -6.5898 C   0  0  0  0  0  0  0  0  0  0  0  0
  -28.4399   -1.4864   -5.3741 C   0  0  0  0  0  0  0  0  0  0  0  0
  -29.5630   -2.2286   -5.0465 C   0  0  0  0  0  0  0  0  0  0  0  0
  -30.1715   -2.0232   -3.8715 F   0  0  0  0  0  0  0  0  0  0  0  0
  -30.0627   -3.1827   -5.9239 C   0  0  0  0  0  0  0  0  0  0  0  0
  -29.4129   -3.4154   -7.1419 C   0  0  0  0  0  0  0  0  0  0  0  0
  -22.1933   -0.1215  -14.0039 N   0  0  0  0  0  0  0  0  0  0  0  0
  -22.7742   -0.4654  -14.7587 H   0  0  0  0  0  0  0  0  0  0  0  0
  -21.6051    1.1111  -14.2808 C   0  0  0  0  0  0  0  0  0  0  0  0
  -22.2856    2.2609  -14.0489 N   0  0  0  0  0  0  0  0  0  0  0  0
  -21.6777    3.4385  -14.2902 C   0  0  0  0  0  0  0  0  0  0  0  0
  -20.4387    3.6477  -14.7595 N   0  0  0  0  0  0  0  0  0  0  0  0
  -19.7853    2.4944  -14.9740 C   0  0  0  0  0  0  0  0  0  0  0  0
  -20.2934    1.2227  -14.7676 C   0  0  0  0  0  0  0  0  0  0  0  0
  -19.2437    0.3625  -15.1441 C   0  0  0  0  0  0  0  0  0  0  0  0
  -18.1513    1.0183  -15.5498 N   0  0  0  0  0  0  0  0  0  0  0  0
  -18.4957    2.3266  -15.4133 N   0  0  0  0  0  0  0  0  0  0  0  0
  -17.5118    3.3413  -15.7672 C   0  0  0  0  0  0  0  0  0  0  0  0
  -16.0784    2.8257  -15.8783 C   0  0  0  0  0  0  0  0  0  0  0  0
  -15.2721    3.4288  -17.0042 C   0  0  0  0  0  0  0  0  0  0  0  0
  -14.3489    2.6325  -17.6997 C   0  0  0  0  0  0  0  0  0  0  0  0
  -13.6675    3.1341  -18.8087 C   0  0  0  0  0  0  0  0  0  0  0  0
  -13.8957    4.4405  -19.2316 C   0  0  0  0  0  0  0  0  0  0  0  0
  -14.7955    5.2484  -18.5377 C   0  0  0  0  0  0  0  0  0  0  0  0
  -15.4817    4.7469  -17.4283 C   0  0  0  0  0  0  0  0  0  0  0  0
  8  9  2  0  0  0
  9 10  1  0  0  0
  9 11  1  0  0  0
 10 14  1  0  0  0
 10 12  1  0  0  0
 14 15  1  0  0  0
 14 20  2  0  0  0
 15 16  2  0  0  0
 16 17  1  0  0  0
 17 18  1  0  0  0
 17 19  2  0  0  0
 19 20  1  0  0  0
 11  2  1  0  0  0
 11 13  1  0  0  0
  2  3  1  0  0  0
  2  7  2  0  0  0
  3  4  2  0  0  0
  4  5  1  0  0  0
  5  6  2  0  0  0
  6  1  1  0  0  0
  6  7  1  0  0  0
  1 21  1  0  0  0
 21 23  1  0  0  0
 21 22  1  0  0  0
 23 24  1  0  0  0
 23 28  2  0  0  0
 24 25  2  0  0  0
 25 26  1  0  0  0
 26 27  2  0  0  0
 27 28  1  0  0  0
 27 31  1  0  0  0
 28 29  1  0  0  0
 29 30  2  0  0  0
 30 31  1  0  0  0
 31 32  1  0  0  0
 32 33  1  0  0  0
 33 34  1  0  0  0
 34 35  1  0  0  0
 34 39  2  0  0  0
 35 36  2  0  0  0
 36 37  1  0  0  0
 37 38  2  0  0  0
 38 39  1  0  0  0
M  END
> <minimizedAffinity>
-10.88221

$$$$
