CHEMBL323838


 33 37  0  0  0  0  0  0  0  0999 V2000
  -15.6175    2.4649  -16.5283 C   0  0  0  0  0  0  0  0  0  0  0  0
  -16.0856    3.7828  -16.5068 C   0  0  0  0  0  0  0  0  0  0  0  0
  -17.3104    4.0955  -15.9106 C   0  0  0  0  0  0  0  0  0  0  0  0
  -18.0509    3.0381  -15.3692 C   0  0  0  0  0  0  0  0  0  0  0  0
  -19.2965    3.0325  -14.7835 N   0  0  0  0  0  0  0  0  0  0  0  0
  -19.6951    1.7497  -14.4707 C   0  0  0  0  0  0  0  0  0  0  0  0
  -18.6272    0.9289  -14.7988 C   0  0  0  0  0  0  0  0  0  0  0  0
  -17.6014    1.7188  -15.3783 C   0  0  0  0  0  0  0  0  0  0  0  0
  -16.3552    1.4199  -15.9577 C   0  0  0  0  0  0  0  0  0  0  0  0
  -19.8870    3.8465  -14.6623 H   0  0  0  0  0  0  0  0  0  0  0  0
  -21.0363    1.4226  -13.9684 C   0  0  0  0  0  0  0  0  0  0  0  0
  -21.3209    0.1328  -13.5215 C   0  0  0  0  0  0  0  0  0  0  0  0
  -22.6227   -0.2268  -13.1502 C   0  0  0  0  0  0  0  0  0  0  0  0
  -22.9231   -1.5391  -12.7534 C   0  0  0  0  0  0  0  0  0  0  0  0
  -24.2311   -1.8941  -12.4391 C   0  0  0  0  0  0  0  0  0  0  0  0
  -25.2352   -0.9351  -12.5063 C   0  0  0  0  0  0  0  0  0  0  0  0
  -24.9257    0.3776  -12.8799 C   0  0  0  0  0  0  0  0  0  0  0  0
  -23.6308    0.7575  -13.2099 C   0  0  0  0  0  0  0  0  0  0  0  0
  -23.3764    2.0226  -13.5909 N   0  0  0  0  0  0  0  0  0  0  0  0
  -22.1113    2.3096  -13.9572 C   0  0  0  0  0  0  0  0  0  0  0  0
  -21.9823    3.6049  -14.3586 O   0  0  0  0  0  0  0  0  0  0  0  0
  -22.9062    3.8950  -14.2347 H   0  0  0  0  0  0  0  0  0  0  0  0
  -14.1522    2.0634  -17.4459 S   0  0  0  0  0  0  0  0  0  0  0  0
  -14.0916    2.9385  -18.6006 O   0  0  0  0  0  0  0  0  0  0  0  0
  -14.1263    0.6250  -17.6087 O   0  0  0  0  0  0  0  0  0  0  0  0
  -13.2956    1.5579  -12.8404 N   0  0  0  0  0  0  0  0  0  0  0  0
  -13.3369    1.4851  -14.2985 C   0  0  0  0  0  0  0  0  0  0  0  0
  -12.1280    0.7558  -14.8820 C   0  0  0  0  0  0  0  0  0  0  0  0
  -11.8085    1.4600  -16.2046 C   0  0  0  0  0  0  0  0  0  0  0  0
  -12.8616    2.4970  -16.4062 N   0  0  0  0  0  0  0  0  0  0  0  0
  -13.3139    2.8365  -15.0217 C   0  0  0  0  0  0  0  0  0  0  0  0
  -13.3357    0.6122  -12.4584 H   0  0  0  0  0  0  0  0  0  0  0  0
  -14.1377    2.0257  -12.5024 H   0  0  0  0  0  0  0  0  0  0  0  0
 26 27  1  0  0  0
 26 32  1  0  0  0
 26 33  1  0  0  0
 27 28  1  0  0  0
 27 31  1  0  0  0
 28 29  1  0  0  0
 29 30  1  0  0  0
 30 23  1  0  0  0
 30 31  1  0  0  0
 23 24  2  0  0  0
 23 25  2  0  0  0
 23  1  1  0  0  0
  1  2  1  0  0  0
  1  9  2  0  0  0
  2  3  2  0  0  0
  3  4  1  0  0  0
  4  5  1  0  0  0
  4  8  2  0  0  0
  5  6  1  0  0  0
  5 10  1  0  0  0
  6 11  1  0  0  0
  6  7  2  0  0  0
 11 12  1  0  0  0
 11 20  2  0  0  0
 12 13  2  0  0  0
 13 14  1  0  0  0
 13 18  1  0  0  0
 14 15  2  0  0  0
 15 16  1  0  0  0
 16 17  2  0  0  0
 17 18  1  0  0  0
 18 19  2  0  0  0
 19 20  1  0  0  0
 20 21  1  0  0  0
 21 22  1  0  0  0
  7  8  1  0  0  0
  8  9  1  0  0  0
M  END
> <minimizedAffinity>
-9.54546

$$$$
