CHEMBL3938792


 34 37  0  0  0  0  0  0  0  0999 V2000
  -22.3422   -0.0702  -13.7981 C   0  0  0  0  0  0  0  0  0  0  0  0
  -23.4759   -0.2850  -14.5835 C   0  0  0  0  0  0  0  0  0  0  0  0
  -24.6405   -0.8297  -14.0340 C   0  0  0  0  0  0  0  0  0  0  0  0
  -24.6868   -1.2376  -12.6998 C   0  0  0  0  0  0  0  0  0  0  0  0
  -23.5377   -1.0941  -11.9220 C   0  0  0  0  0  0  0  0  0  0  0  0
  -22.3771   -0.5226  -12.4687 C   0  0  0  0  0  0  0  0  0  0  0  0
  -22.4818    3.0087  -13.1448 N   0  0  0  0  0  0  0  0  0  0  0  0
  -21.9924    3.0031  -14.4185 C   0  0  0  0  0  0  0  0  0  0  0  0
  -22.2478    3.8250  -15.2835 O   0  0  0  0  0  0  0  0  0  0  0  0
  -21.0385    1.9873  -14.6251 N   0  0  0  0  0  0  0  0  0  0  0  0
  -21.1439    0.6166  -14.3182 C   0  0  0  0  0  0  0  0  0  0  0  0
  -19.9228    0.0466  -14.6445 C   0  0  0  0  0  0  0  0  0  0  0  0
  -19.0426    1.0541  -15.1033 C   0  0  0  0  0  0  0  0  0  0  0  0
  -17.6946    1.0544  -15.5010 C   0  0  0  0  0  0  0  0  0  0  0  0
  -17.0835    2.2620  -15.8641 C   0  0  0  0  0  0  0  0  0  0  0  0
  -17.8035    3.4490  -15.8540 C   0  0  0  0  0  0  0  0  0  0  0  0
  -19.1531    3.4647  -15.4860 C   0  0  0  0  0  0  0  0  0  0  0  0
  -19.7566    2.2454  -15.1116 C   0  0  0  0  0  0  0  0  0  0  0  0
  -23.0971    3.7671  -12.8844 H   0  0  0  0  0  0  0  0  0  0  0  0
  -22.0817    2.4372  -12.4131 H   0  0  0  0  0  0  0  0  0  0  0  0
  -25.8601   -1.7480  -12.1025 N   0  0  0  0  0  0  0  0  0  0  0  0
  -26.1620   -1.6555  -10.7555 C   0  0  0  0  0  0  0  0  0  0  0  0
  -25.5613   -0.9496   -9.9483 O   0  0  0  0  0  0  0  0  0  0  0  0
  -27.2154   -2.4821  -10.3990 N   0  0  0  0  0  0  0  0  0  0  0  0
  -26.6307   -1.9859  -12.7116 H   0  0  0  0  0  0  0  0  0  0  0  0
  -27.2256   -3.3641  -10.8930 H   0  0  0  0  0  0  0  0  0  0  0  0
  -27.6912   -2.4952   -9.0651 C   0  0  0  0  0  0  0  0  0  0  0  0
  -28.1799   -3.6908   -8.5320 C   0  0  0  0  0  0  0  0  0  0  0  0
  -28.6314   -3.7293   -7.2105 C   0  0  0  0  0  0  0  0  0  0  0  0
  -28.6382   -2.5654   -6.4457 C   0  0  0  0  0  0  0  0  0  0  0  0
  -29.1128   -2.6224   -5.1926 F   0  0  0  0  0  0  0  0  0  0  0  0
  -28.1687   -1.3671   -6.9765 C   0  0  0  0  0  0  0  0  0  0  0  0
  -28.2071    0.0803   -6.0439 Cl  0  0  0  0  0  0  0  0  0  0  0  0
  -27.6780   -1.3330   -8.2818 C   0  0  0  0  0  0  0  0  0  0  0  0
  7  8  1  0  0  0
  7 19  1  0  0  0
  7 20  1  0  0  0
  8  9  2  0  0  0
  8 10  1  0  0  0
 10 11  1  0  0  0
 10 18  1  0  0  0
 11  1  1  0  0  0
 11 12  2  0  0  0
  1  2  1  0  0  0
  1  6  2  0  0  0
  2  3  2  0  0  0
  3  4  1  0  0  0
  4 21  1  0  0  0
  4  5  2  0  0  0
 21 22  1  0  0  0
 21 25  1  0  0  0
 22 23  2  0  0  0
 22 24  1  0  0  0
 24 27  1  0  0  0
 24 26  1  0  0  0
 27 28  1  0  0  0
 27 34  2  0  0  0
 28 29  2  0  0  0
 29 30  1  0  0  0
 30 31  1  0  0  0
 30 32  2  0  0  0
 32 33  1  0  0  0
 32 34  1  0  0  0
  5  6  1  0  0  0
 12 13  1  0  0  0
 13 14  1  0  0  0
 13 18  2  0  0  0
 14 15  2  0  0  0
 15 16  1  0  0  0
 16 17  2  0  0  0
 17 18  1  0  0  0
M  END
> <minimizedAffinity>
-10.24580

$$$$
