CHEMBL3660293


 42 46  0  0  0  0  0  0  0  0999 V2000
  -16.8968    3.1589  -15.2243 O   0  0  0  0  0  0  0  0  0  0  0  0
  -20.5531    1.1328  -15.1591 C   0  0  0  0  0  0  0  0  0  0  0  0
  -20.5471    2.5319  -15.1204 C   0  0  0  0  0  0  0  0  0  0  0  0
  -19.3447    3.2380  -15.1564 C   0  0  0  0  0  0  0  0  0  0  0  0
  -18.1318    2.5487  -15.1737 C   0  0  0  0  0  0  0  0  0  0  0  0
  -18.1356    1.1505  -15.2127 C   0  0  0  0  0  0  0  0  0  0  0  0
  -19.3427    0.4392  -15.1796 C   0  0  0  0  0  0  0  0  0  0  0  0
  -23.5670   -0.6846  -14.2956 N   0  0  0  0  0  0  0  0  0  0  0  0
  -22.4366    0.0824  -14.0756 C   0  0  0  0  0  0  0  0  0  0  0  0
  -22.0575    0.4830  -12.9869 O   0  0  0  0  0  0  0  0  0  0  0  0
  -21.7800    0.4254  -15.2575 N   0  0  0  0  0  0  0  0  0  0  0  0
  -23.8611   -0.8042  -15.2533 H   0  0  0  0  0  0  0  0  0  0  0  0
  -22.3972    0.7155  -16.0014 H   0  0  0  0  0  0  0  0  0  0  0  0
  -28.1856   -1.9346  -13.0410 C   0  0  0  0  0  0  0  0  0  0  0  0
  -26.7485   -1.7265  -12.6596 C   0  0  0  0  0  0  0  0  0  0  0  0
  -26.3502   -1.9053  -11.3314 C   0  0  0  0  0  0  0  0  0  0  0  0
  -25.0156   -1.7504  -10.9815 C   0  0  0  0  0  0  0  0  0  0  0  0
  -24.0761   -1.3983  -11.9470 C   0  0  0  0  0  0  0  0  0  0  0  0
  -22.7982   -1.4134  -11.5488 F   0  0  0  0  0  0  0  0  0  0  0  0
  -24.4493   -1.1417  -13.2766 C   0  0  0  0  0  0  0  0  0  0  0  0
  -25.7948   -1.3456  -13.6259 C   0  0  0  0  0  0  0  0  0  0  0  0
  -15.7960    2.4331  -15.6247 C   0  0  0  0  0  0  0  0  0  0  0  0
  -15.0430    2.7255  -16.7575 C   0  0  0  0  0  0  0  0  0  0  0  0
  -13.9770    1.8987  -17.0609 C   0  0  0  0  0  0  0  0  0  0  0  0
  -13.5900    0.8561  -16.2951 N   0  0  0  0  0  0  0  0  0  0  0  0
  -14.3002    0.6323  -15.1610 C   0  0  0  0  0  0  0  0  0  0  0  0
  -15.4028    1.3905  -14.7916 C   0  0  0  0  0  0  0  0  0  0  0  0
  -13.8027   -0.4764  -14.3540 C   0  0  0  0  0  0  0  0  0  0  0  0
  -14.4351   -1.3634  -13.5015 C   0  0  0  0  0  0  0  0  0  0  0  0
  -13.4724   -2.2831  -12.9796 C   0  0  0  0  0  0  0  0  0  0  0  0
  -12.2525   -1.8692  -13.4871 C   0  0  0  0  0  0  0  0  0  0  0  0
  -12.4686   -0.8149  -14.3363 N   0  0  0  0  0  0  0  0  0  0  0  0
  -11.7692   -0.3216  -14.8790 H   0  0  0  0  0  0  0  0  0  0  0  0
  -13.7808   -3.3900  -12.0719 C   0  0  0  0  0  0  0  0  0  0  0  0
  -13.7922   -3.1994  -10.8534 O   0  0  0  0  0  0  0  0  0  0  0  0
  -14.1448   -4.6157  -12.6070 N   0  0  0  0  0  0  0  0  0  0  0  0
  -14.6694   -5.6470  -11.7293 C   0  0  0  0  0  0  0  0  0  0  0  0
  -15.2068   -6.7368  -12.6451 C   0  0  0  0  0  0  0  0  0  0  0  0
  -15.4563   -6.0204  -13.9673 C   0  0  0  0  0  0  0  0  0  0  0  0
  -15.3856   -6.9134  -15.0662 O   0  0  0  0  0  0  0  0  0  0  0  0
  -14.3655   -4.9542  -14.0010 C   0  0  0  0  0  0  0  0  0  0  0  0
  -14.5270   -7.3697  -15.0366 H   0  0  0  0  0  0  0  0  0  0  0  0
 14 15  1  0  0  0
 15 16  1  0  0  0
 15 21  2  0  0  0
 16 17  2  0  0  0
 17 18  1  0  0  0
 18 19  1  0  0  0
 18 20  2  0  0  0
 20  8  1  0  0  0
 20 21  1  0  0  0
  8  9  1  0  0  0
  8 12  1  0  0  0
  9 10  2  0  0  0
  9 11  1  0  0  0
 11  2  1  0  0  0
 11 13  1  0  0  0
  2  3  1  0  0  0
  2  7  2  0  0  0
  3  4  2  0  0  0
  4  5  1  0  0  0
  5  1  1  0  0  0
  5  6  2  0  0  0
  1 22  1  0  0  0
 22 23  1  0  0  0
 22 27  2  0  0  0
 23 24  2  0  0  0
 24 25  1  0  0  0
 25 26  2  0  0  0
 26 28  1  0  0  0
 26 27  1  0  0  0
 28 29  2  0  0  0
 28 32  1  0  0  0
 29 30  1  0  0  0
 30 34  1  0  0  0
 30 31  2  0  0  0
 34 35  2  0  0  0
 34 36  1  0  0  0
 36 37  1  0  0  0
 36 41  1  0  0  0
 37 38  1  0  0  0
 38 39  1  0  0  0
 39 40  1  0  0  0
 39 41  1  0  0  0
 40 42  1  0  0  0
 31 32  1  0  0  0
 32 33  1  0  0  0
  6  7  1  0  0  0
M  END
> <minimizedAffinity>
-10.88514

$$$$
