CHEMBL1240553


 27 30  0  0  0  0  0  0  0  0999 V2000
  -29.0993   -6.6447   -6.3776 C   0  0  0  0  0  0  0  0  0  0  0  0
  -28.9951   -7.2244   -7.5913 N   0  0  0  0  0  0  0  0  0  0  0  0
  -28.7258   -8.5172   -7.3272 N   0  0  0  0  0  0  0  0  0  0  0  0
  -28.6937   -8.8053   -5.9902 C   0  0  0  0  0  0  0  0  0  0  0  0
  -28.4035   -9.9919   -5.4271 N   0  0  0  0  0  0  0  0  0  0  0  0
  -28.4303   -9.9220   -4.0913 C   0  0  0  0  0  0  0  0  0  0  0  0
  -28.7396   -8.8604   -3.3255 N   0  0  0  0  0  0  0  0  0  0  0  0
  -29.0403   -7.6890   -3.9260 C   0  0  0  0  0  0  0  0  0  0  0  0
  -29.3347   -6.6392   -3.0773 N   0  0  0  0  0  0  0  0  0  0  0  0
  -28.9900   -7.6189   -5.3277 C   0  0  0  0  0  0  0  0  0  0  0  0
  -29.3877   -6.8953   -2.0996 H   0  0  0  0  0  0  0  0  0  0  0  0
  -29.9132   -5.8796   -3.4082 H   0  0  0  0  0  0  0  0  0  0  0  0
  -29.4343   -2.3767   -5.9893 C   0  0  0  0  0  0  0  0  0  0  0  0
  -30.3058   -3.2356   -5.3082 C   0  0  0  0  0  0  0  0  0  0  0  0
  -30.1598   -4.6164   -5.4151 C   0  0  0  0  0  0  0  0  0  0  0  0
  -29.2210   -5.1861   -6.2755 C   0  0  0  0  0  0  0  0  0  0  0  0
  -28.3599   -4.3263   -6.9721 C   0  0  0  0  0  0  0  0  0  0  0  0
  -28.4389   -2.9377   -6.8177 C   0  0  0  0  0  0  0  0  0  0  0  0
  -28.7981   -0.3770   -4.8863 C   0  0  0  0  0  0  0  0  0  0  0  0
  -29.5523   -1.0144   -5.9121 O   0  0  0  0  0  0  0  0  0  0  0  0
  -27.5199   -2.2224   -7.5399 O   0  0  0  0  0  0  0  0  0  0  0  0
  -27.7687   -2.1653   -8.9437 C   0  0  0  0  0  0  0  0  0  0  0  0
  -28.4743   -9.4478   -8.4053 C   0  0  0  0  0  0  0  0  0  0  0  0
  -27.2992   -9.0619   -9.3061 C   0  0  0  0  0  0  0  0  0  0  0  0
  -27.5211   -9.8490  -10.5968 C   0  0  0  0  0  0  0  0  0  0  0  0
  -28.9847  -10.2910  -10.5912 C   0  0  0  0  0  0  0  0  0  0  0  0
  -29.6279   -9.5952   -9.3983 C   0  0  0  0  0  0  0  0  0  0  0  0
 19 20  1  0  0  0
 20 13  1  0  0  0
 13 14  1  0  0  0
 13 18  2  0  0  0
 14 15  2  0  0  0
 15 16  1  0  0  0
 16  1  1  0  0  0
 16 17  2  0  0  0
  1  2  2  0  0  0
  1 10  1  0  0  0
  2  3  1  0  0  0
  3 23  1  0  0  0
  3  4  1  0  0  0
 23 24  1  0  0  0
 23 27  1  0  0  0
 24 25  1  0  0  0
 25 26  1  0  0  0
 26 27  1  0  0  0
  4  5  1  0  0  0
  4 10  2  0  0  0
  5  6  2  0  0  0
  6  7  1  0  0  0
  7  8  2  0  0  0
  8  9  1  0  0  0
  8 10  1  0  0  0
  9 11  1  0  0  0
  9 12  1  0  0  0
 17 18  1  0  0  0
 18 21  1  0  0  0
 21 22  1  0  0  0
M  END
> <minimizedAffinity>
-8.02201

$$$$
