CHEMBL1088027


 41 45  0  0  0  0  0  0  0  0999 V2000
  -12.1260    1.5055  -15.4380 C   0  0  0  0  0  0  0  0  0  0  0  0
  -13.6033    1.8090  -15.5243 C   0  0  0  0  0  0  0  0  0  0  0  0
  -14.5042    0.7378  -15.4292 C   0  0  0  0  0  0  0  0  0  0  0  0
  -15.8775    0.9676  -15.4431 C   0  0  0  0  0  0  0  0  0  0  0  0
  -16.3710    2.2739  -15.4585 C   0  0  0  0  0  0  0  0  0  0  0  0
  -15.4713    3.3375  -15.5455 C   0  0  0  0  0  0  0  0  0  0  0  0
  -14.0986    3.1291  -15.6814 C   0  0  0  0  0  0  0  0  0  0  0  0
  -17.8481    2.4788  -15.4988 C   0  0  0  0  0  0  0  0  0  0  0  0
  -18.2651    3.3135  -16.2932 O   0  0  0  0  0  0  0  0  0  0  0  0
  -18.6197    1.7291  -14.6164 N   0  0  0  0  0  0  0  0  0  0  0  0
  -18.1541    1.0942  -13.9867 H   0  0  0  0  0  0  0  0  0  0  0  0
  -20.0219    1.8352  -14.4399 C   0  0  0  0  0  0  0  0  0  0  0  0
  -20.6857    3.0466  -14.2577 C   0  0  0  0  0  0  0  0  0  0  0  0
  -22.0669    3.0777  -14.0511 C   0  0  0  0  0  0  0  0  0  0  0  0
  -22.8006    1.8938  -13.9918 C   0  0  0  0  0  0  0  0  0  0  0  0
  -22.1524    0.6736  -14.1521 C   0  0  0  0  0  0  0  0  0  0  0  0
  -20.7737    0.6573  -14.4258 C   0  0  0  0  0  0  0  0  0  0  0  0
  -22.7536   -0.5530  -14.0777 O   0  0  0  0  0  0  0  0  0  0  0  0
  -23.2186   -0.9218  -12.7873 C   0  0  0  0  0  0  0  0  0  0  0  0
  -23.3034   -2.2739  -12.7229 F   0  0  0  0  0  0  0  0  0  0  0  0
  -22.2688   -0.5506  -11.8906 F   0  0  0  0  0  0  0  0  0  0  0  0
  -13.1989    4.1718  -15.9592 N   0  0  0  0  0  0  0  0  0  0  0  0
  -12.5622    4.3317  -15.1835 H   0  0  0  0  0  0  0  0  0  0  0  0
  -12.6306    4.6482  -17.1034 C   0  0  0  0  0  0  0  0  0  0  0  0
  -12.1419    5.8737  -17.0663 N   0  0  0  0  0  0  0  0  0  0  0  0
  -13.0074    6.5533  -17.8826 C   0  0  0  0  0  0  0  0  0  0  0  0
  -13.2695    7.9220  -17.9364 C   0  0  0  0  0  0  0  0  0  0  0  0
  -14.3036    8.3618  -18.7715 C   0  0  0  0  0  0  0  0  0  0  0  0
  -15.0067    7.4632  -19.5788 C   0  0  0  0  0  0  0  0  0  0  0  0
  -14.7106    6.0955  -19.5862 C   0  0  0  0  0  0  0  0  0  0  0  0
  -13.7245    5.6658  -18.6915 C   0  0  0  0  0  0  0  0  0  0  0  0
  -13.1329    4.4454  -18.3915 N   0  0  0  0  0  0  0  0  0  0  0  0
  -12.9223    3.3741  -19.3060 C   0  0  0  0  0  0  0  0  0  0  0  0
  -13.6399    2.1969  -19.1800 C   0  0  0  0  0  0  0  0  0  0  0  0
  -13.3764    1.2149  -20.1120 C   0  0  0  0  0  0  0  0  0  0  0  0
  -14.1361    0.0531  -20.1558 N   0  0  0  0  0  0  0  0  0  0  0  0
  -12.4601    1.3547  -21.0746 N   0  0  0  0  0  0  0  0  0  0  0  0
  -11.7913    2.5119  -21.0975 C   0  0  0  0  0  0  0  0  0  0  0  0
  -11.9798    3.5383  -20.2622 N   0  0  0  0  0  0  0  0  0  0  0  0
  -14.1843   -0.4409  -19.2733 H   0  0  0  0  0  0  0  0  0  0  0  0
  -13.7883   -0.5367  -20.9082 H   0  0  0  0  0  0  0  0  0  0  0  0
  1  2  1  0  0  0
  2  3  1  0  0  0
  2  7  2  0  0  0
  3  4  2  0  0  0
  4  5  1  0  0  0
  5  8  1  0  0  0
  5  6  2  0  0  0
  8  9  2  0  0  0
  8 10  1  0  0  0
 10 12  1  0  0  0
 10 11  1  0  0  0
 12 13  1  0  0  0
 12 17  2  0  0  0
 13 14  2  0  0  0
 14 15  1  0  0  0
 15 16  2  0  0  0
 16 18  1  0  0  0
 16 17  1  0  0  0
 18 19  1  0  0  0
 19 20  1  0  0  0
 19 21  1  0  0  0
  6  7  1  0  0  0
  7 22  1  0  0  0
 22 24  1  0  0  0
 22 23  1  0  0  0
 24 25  2  0  0  0
 24 32  1  0  0  0
 25 26  1  0  0  0
 26 27  1  0  0  0
 26 31  2  0  0  0
 27 28  2  0  0  0
 28 29  1  0  0  0
 29 30  2  0  0  0
 30 31  1  0  0  0
 31 32  1  0  0  0
 32 33  1  0  0  0
 33 34  1  0  0  0
 33 39  2  0  0  0
 34 35  2  0  0  0
 35 36  1  0  0  0
 35 37  1  0  0  0
 36 40  1  0  0  0
 36 41  1  0  0  0
 37 38  2  0  0  0
 38 39  1  0  0  0
M  END
> <minimizedAffinity>
-8.54627

$$$$
