CHEMBL2086728


 32 36  0  0  0  0  0  0  0  0999 V2000
  -13.3509   -0.9063  -14.7286 O   0  0  0  0  0  0  0  0  0  0  0  0
  -13.7224    0.0979  -15.2975 C   0  0  0  0  0  0  0  0  0  0  0  0
  -13.0193    0.7568  -16.2875 N   0  0  0  0  0  0  0  0  0  0  0  0
  -13.7480    1.8113  -16.8192 C   0  0  0  0  0  0  0  0  0  0  0  0
  -13.3314    2.6434  -17.8426 C   0  0  0  0  0  0  0  0  0  0  0  0
  -14.2019    3.6556  -18.2401 C   0  0  0  0  0  0  0  0  0  0  0  0
  -15.4407    3.8141  -17.6025 C   0  0  0  0  0  0  0  0  0  0  0  0
  -15.8388    2.9557  -16.5677 C   0  0  0  0  0  0  0  0  0  0  0  0
  -14.9871    1.9312  -16.1810 C   0  0  0  0  0  0  0  0  0  0  0  0
  -15.0506    0.8317  -15.1815 C   0  0  0  0  0  0  0  0  0  0  0  0
  -16.0644    0.4368  -14.3704 C   0  0  0  0  0  0  0  0  0  0  0  0
  -12.1016    0.4613  -16.5830 H   0  0  0  0  0  0  0  0  0  0  0  0
  -15.9137   -0.6991  -13.5154 C   0  0  0  0  0  0  0  0  0  0  0  0
  -15.6715   -0.8164  -12.2235 N   0  0  0  0  0  0  0  0  0  0  0  0
  -15.6538   -2.1757  -11.9710 C   0  0  0  0  0  0  0  0  0  0  0  0
  -15.3912   -2.8844  -10.7866 C   0  0  0  0  0  0  0  0  0  0  0  0
  -15.4014   -4.2887  -10.8229 C   0  0  0  0  0  0  0  0  0  0  0  0
  -15.6891   -4.9750  -12.0052 C   0  0  0  0  0  0  0  0  0  0  0  0
  -15.9882   -4.2883  -13.1844 C   0  0  0  0  0  0  0  0  0  0  0  0
  -15.9497   -2.8950  -13.1223 C   0  0  0  0  0  0  0  0  0  0  0  0
  -16.1544   -1.9342  -14.0724 N   0  0  0  0  0  0  0  0  0  0  0  0
  -16.4086   -2.1029  -15.0315 H   0  0  0  0  0  0  0  0  0  0  0  0
  -17.3903    1.0849  -14.4578 C   0  0  0  0  0  0  0  0  0  0  0  0
  -18.4292    0.4316  -15.1383 C   0  0  0  0  0  0  0  0  0  0  0  0
  -19.7010    1.0002  -15.1992 C   0  0  0  0  0  0  0  0  0  0  0  0
  -19.9535    2.2353  -14.5862 C   0  0  0  0  0  0  0  0  0  0  0  0
  -18.9097    2.8873  -13.9087 C   0  0  0  0  0  0  0  0  0  0  0  0
  -17.6370    2.3133  -13.8378 C   0  0  0  0  0  0  0  0  0  0  0  0
  -21.3271    2.8607  -14.6426 C   0  0  0  0  0  0  0  0  0  0  0  0
  -21.5643    3.5449  -15.7974 F   0  0  0  0  0  0  0  0  0  0  0  0
  -22.3251    1.9414  -14.5420 F   0  0  0  0  0  0  0  0  0  0  0  0
  -21.5316    3.7525  -13.6345 F   0  0  0  0  0  0  0  0  0  0  0  0
  1  2  2  0  0  0
  2  3  1  0  0  0
  2 10  1  0  0  0
  3  4  1  0  0  0
  3 12  1  0  0  0
  4  5  1  0  0  0
  4  9  2  0  0  0
  5  6  2  0  0  0
  6  7  1  0  0  0
  7  8  2  0  0  0
  8  9  1  0  0  0
  9 10  1  0  0  0
 10 11  2  0  0  0
 11 23  1  0  0  0
 11 13  1  0  0  0
 23 24  1  0  0  0
 23 28  2  0  0  0
 24 25  2  0  0  0
 25 26  1  0  0  0
 26 29  1  0  0  0
 26 27  2  0  0  0
 29 30  1  0  0  0
 29 31  1  0  0  0
 29 32  1  0  0  0
 27 28  1  0  0  0
 13 14  2  0  0  0
 13 21  1  0  0  0
 14 15  1  0  0  0
 15 16  1  0  0  0
 15 20  2  0  0  0
 16 17  2  0  0  0
 17 18  1  0  0  0
 18 19  2  0  0  0
 19 20  1  0  0  0
 20 21  1  0  0  0
 21 22  1  0  0  0
M  END
> <minimizedAffinity>
-9.92704

$$$$
