CHEMBL179698


 35 38  0  0  0  0  0  0  0  0999 V2000
  -29.4643   -7.1792   -6.1162 C   0  0  0  0  0  0  0  0  0  0  0  0
  -29.0949   -8.0560   -7.1336 C   0  0  0  0  0  0  0  0  0  0  0  0
  -28.3066   -9.1705   -6.8305 C   0  0  0  0  0  0  0  0  0  0  0  0
  -27.7922   -9.3763   -5.5441 C   0  0  0  0  0  0  0  0  0  0  0  0
  -28.0304   -8.3931   -4.5782 C   0  0  0  0  0  0  0  0  0  0  0  0
  -28.8593   -7.2988   -4.8642 C   0  0  0  0  0  0  0  0  0  0  0  0
  -27.1004  -10.5525   -5.1563 N   0  0  0  0  0  0  0  0  0  0  0  0
  -25.7485  -10.6361   -4.8613 C   0  0  0  0  0  0  0  0  0  0  0  0
  -24.9956   -9.6733   -4.7640 O   0  0  0  0  0  0  0  0  0  0  0  0
  -25.3102  -11.9433   -4.7249 N   0  0  0  0  0  0  0  0  0  0  0  0
  -27.6427  -11.3989   -5.0658 H   0  0  0  0  0  0  0  0  0  0  0  0
  -25.7335  -12.6023   -5.3676 H   0  0  0  0  0  0  0  0  0  0  0  0
  -23.9420  -12.1919   -4.4230 C   0  0  0  0  0  0  0  0  0  0  0  0
  -23.4854  -12.2575   -3.0980 C   0  0  0  0  0  0  0  0  0  0  0  0
  -22.1213  -12.3886   -2.8195 C   0  0  0  0  0  0  0  0  0  0  0  0
  -21.2046  -12.4542   -3.8653 C   0  0  0  0  0  0  0  0  0  0  0  0
  -21.6604  -12.4224   -5.1809 C   0  0  0  0  0  0  0  0  0  0  0  0
  -20.7680  -12.4626   -6.1802 F   0  0  0  0  0  0  0  0  0  0  0  0
  -23.0203  -12.3156   -5.4621 C   0  0  0  0  0  0  0  0  0  0  0  0
  -23.4396  -12.2541   -6.7360 F   0  0  0  0  0  0  0  0  0  0  0  0
  -30.4253   -6.2048   -6.2451 O   0  0  0  0  0  0  0  0  0  0  0  0
  -28.4098   -1.5157   -5.1000 C   0  0  0  0  0  0  0  0  0  0  0  0
  -29.3877   -1.8801   -4.1573 C   0  0  0  0  0  0  0  0  0  0  0  0
  -30.1050   -3.0669   -4.2406 C   0  0  0  0  0  0  0  0  0  0  0  0
  -30.9264   -3.3777   -3.2217 N   0  0  0  0  0  0  0  0  0  0  0  0
  -31.5504   -4.5697   -3.2475 C   0  0  0  0  0  0  0  0  0  0  0  0
  -31.3832   -5.5026   -4.2513 C   0  0  0  0  0  0  0  0  0  0  0  0
  -30.5380   -5.1831   -5.3124 C   0  0  0  0  0  0  0  0  0  0  0  0
  -29.9187   -3.9017   -5.3539 C   0  0  0  0  0  0  0  0  0  0  0  0
  -29.1070   -3.4085   -6.4004 C   0  0  0  0  0  0  0  0  0  0  0  0
  -28.2901   -2.2817   -6.2573 C   0  0  0  0  0  0  0  0  0  0  0  0
  -28.2591    0.8499   -4.9390 C   0  0  0  0  0  0  0  0  0  0  0  0
  -27.6053   -0.4203   -4.9299 O   0  0  0  0  0  0  0  0  0  0  0  0
  -27.4534   -2.1421   -7.3263 O   0  0  0  0  0  0  0  0  0  0  0  0
  -27.8764   -2.5328   -8.6192 C   0  0  0  0  0  0  0  0  0  0  0  0
 32 33  1  0  0  0
 33 22  1  0  0  0
 22 23  1  0  0  0
 22 31  2  0  0  0
 23 24  2  0  0  0
 24 25  1  0  0  0
 24 29  1  0  0  0
 25 26  2  0  0  0
 26 27  1  0  0  0
 27 28  2  0  0  0
 28 21  1  0  0  0
 28 29  1  0  0  0
 21  1  1  0  0  0
  1  2  1  0  0  0
  1  6  2  0  0  0
  2  3  2  0  0  0
  3  4  1  0  0  0
  4  7  1  0  0  0
  4  5  2  0  0  0
  7  8  1  0  0  0
  7 11  1  0  0  0
  8  9  2  0  0  0
  8 10  1  0  0  0
 10 13  1  0  0  0
 10 12  1  0  0  0
 13 14  1  0  0  0
 13 19  2  0  0  0
 14 15  2  0  0  0
 15 16  1  0  0  0
 16 17  2  0  0  0
 17 18  1  0  0  0
 17 19  1  0  0  0
 19 20  1  0  0  0
  5  6  1  0  0  0
 29 30  2  0  0  0
 30 31  1  0  0  0
 31 34  1  0  0  0
 34 35  1  0  0  0
M  END
> <minimizedAffinity>
-9.17499

$$$$
