CHEMBL2337363


 27 30  0  0  0  0  0  0  0  0999 V2000
  -12.2173   -2.9452   -7.8818 N   0  0  0  0  0  0  0  0  0  0  0  0
  -12.8437   -3.6462   -8.8923 C   0  0  0  0  0  0  0  0  0  0  0  0
  -13.7879   -2.9963   -9.5699 N   0  0  0  0  0  0  0  0  0  0  0  0
  -14.4492   -3.5935  -10.6014 C   0  0  0  0  0  0  0  0  0  0  0  0
  -14.0985   -4.9199  -10.9258 C   0  0  0  0  0  0  0  0  0  0  0  0
  -13.1341   -5.4835  -10.1026 C   0  0  0  0  0  0  0  0  0  0  0  0
  -12.4880   -4.9138   -9.0784 N   0  0  0  0  0  0  0  0  0  0  0  0
  -12.9175   -6.7671  -10.4930 N   0  0  0  0  0  0  0  0  0  0  0  0
  -13.7011   -7.0773  -11.5751 C   0  0  0  0  0  0  0  0  0  0  0  0
  -13.7767   -8.2828  -12.2886 C   0  0  0  0  0  0  0  0  0  0  0  0
  -14.6592   -8.3589  -13.3655 C   0  0  0  0  0  0  0  0  0  0  0  0
  -15.4433   -7.2678  -13.7134 C   0  0  0  0  0  0  0  0  0  0  0  0
  -15.3515   -6.0781  -12.9840 C   0  0  0  0  0  0  0  0  0  0  0  0
  -16.3253   -4.7513  -13.4371 Cl  0  0  0  0  0  0  0  0  0  0  0  0
  -14.4687   -5.9395  -11.8851 C   0  0  0  0  0  0  0  0  0  0  0  0
  -12.7995   -2.1642   -7.6055 H   0  0  0  0  0  0  0  0  0  0  0  0
  -11.8949   -3.5713   -7.1617 H   0  0  0  0  0  0  0  0  0  0  0  0
  -12.2614   -7.3853  -10.0399 H   0  0  0  0  0  0  0  0  0  0  0  0
  -15.4099   -2.8443  -11.2881 N   0  0  0  0  0  0  0  0  0  0  0  0
  -16.3283   -2.8328  -10.8633 H   0  0  0  0  0  0  0  0  0  0  0  0
  -15.2010   -1.8391  -12.2468 C   0  0  0  0  0  0  0  0  0  0  0  0
  -16.0329   -0.7126  -12.2556 C   0  0  0  0  0  0  0  0  0  0  0  0
  -15.9014    0.2635  -13.2491 C   0  0  0  0  0  0  0  0  0  0  0  0
  -14.9268    0.1227  -14.2352 C   0  0  0  0  0  0  0  0  0  0  0  0
  -14.7778    1.3086  -15.4719 Cl  0  0  0  0  0  0  0  0  0  0  0  0
  -14.0799   -0.9789  -14.2328 C   0  0  0  0  0  0  0  0  0  0  0  0
  -14.2256   -1.9567  -13.2474 C   0  0  0  0  0  0  0  0  0  0  0  0
  1  2  1  0  0  0
  1 16  1  0  0  0
  1 17  1  0  0  0
  2  3  1  0  0  0
  2  7  2  0  0  0
  3  4  2  0  0  0
  4 19  1  0  0  0
  4  5  1  0  0  0
 19 21  1  0  0  0
 19 20  1  0  0  0
 21 22  1  0  0  0
 21 27  2  0  0  0
 22 23  2  0  0  0
 23 24  1  0  0  0
 24 25  1  0  0  0
 24 26  2  0  0  0
 26 27  1  0  0  0
  5  6  2  0  0  0
  5 15  1  0  0  0
  6  7  1  0  0  0
  6  8  1  0  0  0
  8  9  1  0  0  0
  8 18  1  0  0  0
  9 10  1  0  0  0
  9 15  2  0  0  0
 10 11  2  0  0  0
 11 12  1  0  0  0
 12 13  2  0  0  0
 13 14  1  0  0  0
 13 15  1  0  0  0
M  END
> <minimizedAffinity>
-7.51402

$$$$
