CHEMBL1076477


 49 54  0  0  0  0  0  0  0  0999 V2000
  -14.2350   -0.2377  -13.9264 C   0  0  0  0  0  0  0  0  0  0  0  0
  -14.2965    0.7051  -12.9945 N   0  0  0  0  0  0  0  0  0  0  0  0
  -13.1207    1.3876  -13.1935 C   0  0  0  0  0  0  0  0  0  0  0  0
  -12.7775    2.7083  -12.8777 C   0  0  0  0  0  0  0  0  0  0  0  0
  -11.5725    3.2144  -13.3807 C   0  0  0  0  0  0  0  0  0  0  0  0
  -10.6966    2.4081  -14.1160 C   0  0  0  0  0  0  0  0  0  0  0  0
  -10.9787    1.0591  -14.3576 C   0  0  0  0  0  0  0  0  0  0  0  0
  -12.2155    0.5955  -13.8968 C   0  0  0  0  0  0  0  0  0  0  0  0
  -12.8890   -0.6193  -13.9859 N   0  0  0  0  0  0  0  0  0  0  0  0
  -12.3412   -1.9187  -13.8197 C   0  0  0  0  0  0  0  0  0  0  0  0
  -12.0792   -2.3628  -12.5274 C   0  0  0  0  0  0  0  0  0  0  0  0
  -11.5587   -3.6353  -12.3736 C   0  0  0  0  0  0  0  0  0  0  0  0
  -11.2863   -4.3989  -13.4399 N   0  0  0  0  0  0  0  0  0  0  0  0
  -11.6023   -3.8976  -14.6456 C   0  0  0  0  0  0  0  0  0  0  0  0
  -12.1596   -2.7026  -14.8974 N   0  0  0  0  0  0  0  0  0  0  0  0
  -11.3645   -4.1215  -11.0684 N   0  0  0  0  0  0  0  0  0  0  0  0
  -11.6564   -3.4153  -10.3895 H   0  0  0  0  0  0  0  0  0  0  0  0
  -11.9913   -5.4143  -10.7757 C   0  0  0  0  0  0  0  0  0  0  0  0
  -13.1244   -5.2669   -9.7249 C   0  0  0  0  0  0  0  0  0  0  0  0
  -14.4822   -5.1250  -10.2935 N   0  0  0  0  0  0  0  0  0  0  0  0
  -14.8510   -3.7136  -10.5258 C   0  0  0  0  0  0  0  0  0  0  0  0
  -16.2782   -3.5924  -11.1071 C   0  0  0  0  0  0  0  0  0  0  0  0
  -16.5009   -4.3315  -12.3635 N   0  0  0  0  0  0  0  0  0  0  0  0
  -15.8852   -3.6564  -13.5023 C   0  0  0  0  0  0  0  0  0  0  0  0
  -16.0077   -5.7157  -12.2079 C   0  0  0  0  0  0  0  0  0  0  0  0
  -14.5955   -5.8527  -11.5801 C   0  0  0  0  0  0  0  0  0  0  0  0
  -14.9915   -0.0649  -15.0492 N   0  0  0  0  0  0  0  0  0  0  0  0
  -14.3592   -0.0413  -15.8513 H   0  0  0  0  0  0  0  0  0  0  0  0
  -14.2477    2.2310  -16.5727 C   0  0  0  0  0  0  0  0  0  0  0  0
  -15.6261    2.0609  -15.9881 C   0  0  0  0  0  0  0  0  0  0  0  0
  -16.5321    3.1188  -16.0747 C   0  0  0  0  0  0  0  0  0  0  0  0
  -17.8160    2.9935  -15.5490 C   0  0  0  0  0  0  0  0  0  0  0  0
  -18.2291    1.8051  -14.9414 C   0  0  0  0  0  0  0  0  0  0  0  0
  -17.3164    0.7426  -14.8375 C   0  0  0  0  0  0  0  0  0  0  0  0
  -16.0145    0.8608  -15.3433 C   0  0  0  0  0  0  0  0  0  0  0  0
  -19.5215    1.6286  -14.3926 N   0  0  0  0  0  0  0  0  0  0  0  0
  -20.4987    0.7538  -14.8438 C   0  0  0  0  0  0  0  0  0  0  0  0
  -20.4263    0.0165  -15.8165 O   0  0  0  0  0  0  0  0  0  0  0  0
  -19.7494    2.2412  -13.6201 H   0  0  0  0  0  0  0  0  0  0  0  0
  -21.7780    0.7368  -14.0785 C   0  0  0  0  0  0  0  0  0  0  0  0
  -22.5888    1.8668  -13.9340 C   0  0  0  0  0  0  0  0  0  0  0  0
  -23.7410    1.8003  -13.1452 C   0  0  0  0  0  0  0  0  0  0  0  0
  -24.0915    0.6084  -12.5058 C   0  0  0  0  0  0  0  0  0  0  0  0
  -23.2973   -0.5376  -12.6479 C   0  0  0  0  0  0  0  0  0  0  0  0
  -22.1331   -0.4570  -13.4285 C   0  0  0  0  0  0  0  0  0  0  0  0
  -23.6749   -1.8433  -11.9894 C   0  0  0  0  0  0  0  0  0  0  0  0
  -23.3803   -2.9359  -12.7471 F   0  0  0  0  0  0  0  0  0  0  0  0
  -23.0296   -2.0293  -10.8047 F   0  0  0  0  0  0  0  0  0  0  0  0
  -25.0043   -1.9292  -11.7115 F   0  0  0  0  0  0  0  0  0  0  0  0
 29 30  1  0  0  0
 30 31  1  0  0  0
 30 35  2  0  0  0
 31 32  2  0  0  0
 32 33  1  0  0  0
 33 36  1  0  0  0
 33 34  2  0  0  0
 36 37  1  0  0  0
 36 39  1  0  0  0
 37 38  2  0  0  0
 37 40  1  0  0  0
 40 41  1  0  0  0
 40 45  2  0  0  0
 41 42  2  0  0  0
 42 43  1  0  0  0
 43 44  2  0  0  0
 44 46  1  0  0  0
 44 45  1  0  0  0
 46 47  1  0  0  0
 46 48  1  0  0  0
 46 49  1  0  0  0
 34 35  1  0  0  0
 35 27  1  0  0  0
 27  1  1  0  0  0
 27 28  1  0  0  0
  1  2  2  0  0  0
  1  9  1  0  0  0
  2  3  1  0  0  0
  3  4  1  0  0  0
  3  8  2  0  0  0
  4  5  2  0  0  0
  5  6  1  0  0  0
  6  7  2  0  0  0
  7  8  1  0  0  0
  8  9  1  0  0  0
  9 10  1  0  0  0
 10 11  1  0  0  0
 10 15  2  0  0  0
 11 12  2  0  0  0
 12 16  1  0  0  0
 12 13  1  0  0  0
 16 18  1  0  0  0
 16 17  1  0  0  0
 18 19  1  0  0  0
 19 20  1  0  0  0
 20 21  1  0  0  0
 20 26  1  0  0  0
 21 22  1  0  0  0
 22 23  1  0  0  0
 23 24  1  0  0  0
 23 25  1  0  0  0
 25 26  1  0  0  0
 13 14  2  0  0  0
 14 15  1  0  0  0
M  END
> <minimizedAffinity>
-10.33331

$$$$
