CHEMBL233213


 30 33  0  0  0  0  0  0  0  0999 V2000
  -15.7617    0.4482  -13.6294 C   0  0  0  0  0  0  0  0  0  0  0  0
  -14.6827    0.7039  -14.3772 N   0  0  0  0  0  0  0  0  0  0  0  0
  -14.8300    1.5963  -15.3690 C   0  0  0  0  0  0  0  0  0  0  0  0
  -16.0047    2.2523  -15.6426 C   0  0  0  0  0  0  0  0  0  0  0  0
  -15.9851    3.5047  -16.8235 Cl  0  0  0  0  0  0  0  0  0  0  0  0
  -17.0939    1.8717  -14.8653 C   0  0  0  0  0  0  0  0  0  0  0  0
  -16.9807    0.9923  -13.8425 N   0  0  0  0  0  0  0  0  0  0  0  0
  -18.4156    2.4424  -15.1519 C   0  0  0  0  0  0  0  0  0  0  0  0
  -18.5192    3.7678  -15.3853 N   0  0  0  0  0  0  0  0  0  0  0  0
  -19.7827    4.0428  -15.0491 N   0  0  0  0  0  0  0  0  0  0  0  0
  -20.5303    2.9534  -14.7267 C   0  0  0  0  0  0  0  0  0  0  0  0
  -21.8123    2.8519  -14.1863 C   0  0  0  0  0  0  0  0  0  0  0  0
  -22.3435    1.5682  -14.0690 C   0  0  0  0  0  0  0  0  0  0  0  0
  -21.6257    0.4540  -14.5065 C   0  0  0  0  0  0  0  0  0  0  0  0
  -20.2971    0.5768  -14.9501 C   0  0  0  0  0  0  0  0  0  0  0  0
  -19.7186    1.8601  -15.0161 C   0  0  0  0  0  0  0  0  0  0  0  0
  -20.0622    5.0113  -15.0295 H   0  0  0  0  0  0  0  0  0  0  0  0
  -15.5356   -0.3868  -12.5393 N   0  0  0  0  0  0  0  0  0  0  0  0
  -14.8582    0.0239  -11.9131 H   0  0  0  0  0  0  0  0  0  0  0  0
  -16.0666   -4.5531  -12.3161 C   0  0  0  0  0  0  0  0  0  0  0  0
  -15.9635   -3.9255  -13.5583 C   0  0  0  0  0  0  0  0  0  0  0  0
  -15.7522   -2.5525  -13.6376 C   0  0  0  0  0  0  0  0  0  0  0  0
  -15.6570   -1.7753  -12.4815 C   0  0  0  0  0  0  0  0  0  0  0  0
  -15.7202   -2.4070  -11.2369 C   0  0  0  0  0  0  0  0  0  0  0  0
  -15.9307   -3.7842  -11.1531 C   0  0  0  0  0  0  0  0  0  0  0  0
  -16.3481   -6.0334  -12.2411 C   0  0  0  0  0  0  0  0  0  0  0  0
  -15.6524   -6.8078  -13.3734 C   0  0  0  0  0  0  0  0  0  0  0  0
  -13.9768   -8.3882  -14.0359 C   0  0  0  0  0  0  0  0  0  0  0  0
  -14.7933   -7.9151  -12.9139 N   0  0  0  0  0  0  0  0  0  0  0  0
  -13.9292   -7.5195  -11.8019 C   0  0  0  0  0  0  0  0  0  0  0  0
 28 29  1  0  0  0
 29 30  1  0  0  0
 29 27  1  0  0  0
 27 26  1  0  0  0
 26 20  1  0  0  0
 20 21  1  0  0  0
 20 25  2  0  0  0
 21 22  2  0  0  0
 22 23  1  0  0  0
 23 18  1  0  0  0
 23 24  2  0  0  0
 18  1  1  0  0  0
 18 19  1  0  0  0
  1  2  1  0  0  0
  1  7  2  0  0  0
  2  3  2  0  0  0
  3  4  1  0  0  0
  4  5  1  0  0  0
  4  6  2  0  0  0
  6  8  1  0  0  0
  6  7  1  0  0  0
  8  9  2  0  0  0
  8 16  1  0  0  0
  9 10  1  0  0  0
 10 11  1  0  0  0
 10 17  1  0  0  0
 11 12  1  0  0  0
 11 16  2  0  0  0
 12 13  2  0  0  0
 13 14  1  0  0  0
 14 15  2  0  0  0
 15 16  1  0  0  0
 24 25  1  0  0  0
M  END
> <minimizedAffinity>
-9.54606

$$$$
