CHEMBL1076465


 46 50  0  0  0  0  0  0  0  0999 V2000
  -28.0440   -3.2875   -4.0641 N   0  0  0  0  0  0  0  0  0  0  0  0
  -27.2667   -3.8737   -3.7657 H   0  0  0  0  0  0  0  0  0  0  0  0
  -27.5372   -2.3910   -4.9710 C   0  0  0  0  0  0  0  0  0  0  0  0
  -27.0719   -1.2457   -4.4827 N   0  0  0  0  0  0  0  0  0  0  0  0
  -28.0681   -0.3612   -4.8090 C   0  0  0  0  0  0  0  0  0  0  0  0
  -28.3899    0.8762   -4.2397 C   0  0  0  0  0  0  0  0  0  0  0  0
  -29.5660    1.5115   -4.6557 C   0  0  0  0  0  0  0  0  0  0  0  0
  -30.3795    0.9485   -5.6430 C   0  0  0  0  0  0  0  0  0  0  0  0
  -30.0438   -0.2594   -6.2624 C   0  0  0  0  0  0  0  0  0  0  0  0
  -28.8760   -0.8885   -5.8174 C   0  0  0  0  0  0  0  0  0  0  0  0
  -28.1787   -2.0436   -6.1697 N   0  0  0  0  0  0  0  0  0  0  0  0
  -27.9207   -2.5383   -7.4887 C   0  0  0  0  0  0  0  0  0  0  0  0
  -27.5424   -1.6574   -8.4905 C   0  0  0  0  0  0  0  0  0  0  0  0
  -27.3281   -2.1617   -9.7623 C   0  0  0  0  0  0  0  0  0  0  0  0
  -27.4493   -3.4689  -10.0199 N   0  0  0  0  0  0  0  0  0  0  0  0
  -27.7398   -4.2600   -8.9771 C   0  0  0  0  0  0  0  0  0  0  0  0
  -27.9865   -3.8639   -7.7206 N   0  0  0  0  0  0  0  0  0  0  0  0
  -27.0584   -1.2469  -10.7830 N   0  0  0  0  0  0  0  0  0  0  0  0
  -26.2518   -0.6619  -10.5832 H   0  0  0  0  0  0  0  0  0  0  0  0
  -27.1745   -1.6709  -12.1727 C   0  0  0  0  0  0  0  0  0  0  0  0
  -25.8737   -1.5467  -12.9639 C   0  0  0  0  0  0  0  0  0  0  0  0
  -24.7418   -0.9076  -12.1670 C   0  0  0  0  0  0  0  0  0  0  0  0
  -24.0630   -1.9177  -11.3568 N   0  0  0  0  0  0  0  0  0  0  0  0
  -24.7049   -2.2825  -10.6528 H   0  0  0  0  0  0  0  0  0  0  0  0
  -23.3053   -1.4731  -10.8383 H   0  0  0  0  0  0  0  0  0  0  0  0
  -30.4714   -2.3148   -2.7464 C   0  0  0  0  0  0  0  0  0  0  0  0
  -30.3800   -3.6480   -3.4465 C   0  0  0  0  0  0  0  0  0  0  0  0
  -31.5100   -4.4750   -3.4312 C   0  0  0  0  0  0  0  0  0  0  0  0
  -31.5221   -5.6842   -4.1256 C   0  0  0  0  0  0  0  0  0  0  0  0
  -30.4261   -6.0595   -4.8980 C   0  0  0  0  0  0  0  0  0  0  0  0
  -29.2969   -5.2330   -4.9084 C   0  0  0  0  0  0  0  0  0  0  0  0
  -29.2120   -4.0770   -4.1240 C   0  0  0  0  0  0  0  0  0  0  0  0
  -30.3766   -7.2484   -5.6744 N   0  0  0  0  0  0  0  0  0  0  0  0
  -30.4190   -7.3280   -7.0521 C   0  0  0  0  0  0  0  0  0  0  0  0
  -30.4952   -6.3880   -7.8361 O   0  0  0  0  0  0  0  0  0  0  0  0
  -30.4008   -8.1066   -5.1411 H   0  0  0  0  0  0  0  0  0  0  0  0
  -30.4161   -8.6991   -7.6384 C   0  0  0  0  0  0  0  0  0  0  0  0
  -31.0889   -9.7805   -7.0572 C   0  0  0  0  0  0  0  0  0  0  0  0
  -30.9864  -11.0473   -7.6344 C   0  0  0  0  0  0  0  0  0  0  0  0
  -30.2262  -11.2463   -8.7871 C   0  0  0  0  0  0  0  0  0  0  0  0
  -29.5540  -10.1724   -9.3904 C   0  0  0  0  0  0  0  0  0  0  0  0
  -29.6509   -8.9044   -8.7972 C   0  0  0  0  0  0  0  0  0  0  0  0
  -28.7452  -10.3553  -10.6513 C   0  0  0  0  0  0  0  0  0  0  0  0
  -29.3955   -9.9440  -11.7762 F   0  0  0  0  0  0  0  0  0  0  0  0
  -27.5781   -9.6545  -10.6218 F   0  0  0  0  0  0  0  0  0  0  0  0
  -28.4009  -11.6528  -10.8735 F   0  0  0  0  0  0  0  0  0  0  0  0
 26 27  1  0  0  0
 27 28  1  0  0  0
 27 32  2  0  0  0
 28 29  2  0  0  0
 29 30  1  0  0  0
 30 33  1  0  0  0
 30 31  2  0  0  0
 33 34  1  0  0  0
 33 36  1  0  0  0
 34 35  2  0  0  0
 34 37  1  0  0  0
 37 38  1  0  0  0
 37 42  2  0  0  0
 38 39  2  0  0  0
 39 40  1  0  0  0
 40 41  2  0  0  0
 41 43  1  0  0  0
 41 42  1  0  0  0
 43 44  1  0  0  0
 43 45  1  0  0  0
 43 46  1  0  0  0
 31 32  1  0  0  0
 32  1  1  0  0  0
  1  3  1  0  0  0
  1  2  1  0  0  0
  3  4  2  0  0  0
  3 11  1  0  0  0
  4  5  1  0  0  0
  5  6  1  0  0  0
  5 10  2  0  0  0
  6  7  2  0  0  0
  7  8  1  0  0  0
  8  9  2  0  0  0
  9 10  1  0  0  0
 10 11  1  0  0  0
 11 12  1  0  0  0
 12 13  1  0  0  0
 12 17  2  0  0  0
 13 14  2  0  0  0
 14 18  1  0  0  0
 14 15  1  0  0  0
 18 20  1  0  0  0
 18 19  1  0  0  0
 20 21  1  0  0  0
 21 22  1  0  0  0
 22 23  1  0  0  0
 23 24  1  0  0  0
 23 25  1  0  0  0
 15 16  2  0  0  0
 16 17  1  0  0  0
M  END
> <minimizedAffinity>
-8.26127

$$$$
