CHEMBL241667


 29 31  0  0  0  0  0  0  0  0999 V2000
  -13.7221    1.3807  -15.5617 C   0  0  0  0  0  0  0  0  0  0  0  0
  -14.0915    0.1469  -14.9194 N   0  0  0  0  0  0  0  0  0  0  0  0
  -13.2596   -0.9367  -14.8045 C   0  0  0  0  0  0  0  0  0  0  0  0
  -13.8280   -1.9190  -14.1461 N   0  0  0  0  0  0  0  0  0  0  0  0
  -15.0301   -1.4195  -13.7594 C   0  0  0  0  0  0  0  0  0  0  0  0
  -15.2526   -0.1400  -14.2359 C   0  0  0  0  0  0  0  0  0  0  0  0
  -16.4263    0.6637  -13.9796 C   0  0  0  0  0  0  0  0  0  0  0  0
  -16.6751    1.0461  -12.8376 O   0  0  0  0  0  0  0  0  0  0  0  0
  -17.2744    0.8705  -15.0635 N   0  0  0  0  0  0  0  0  0  0  0  0
  -17.0942    0.3200  -15.8889 H   0  0  0  0  0  0  0  0  0  0  0  0
  -18.5129    1.5674  -15.0205 C   0  0  0  0  0  0  0  0  0  0  0  0
  -18.6632    2.8927  -15.4342 C   0  0  0  0  0  0  0  0  0  0  0  0
  -19.8895    3.5512  -15.3206 C   0  0  0  0  0  0  0  0  0  0  0  0
  -20.9943    2.8854  -14.8106 C   0  0  0  0  0  0  0  0  0  0  0  0
  -20.8890    1.5431  -14.4190 C   0  0  0  0  0  0  0  0  0  0  0  0
  -19.6393    0.8905  -14.5298 C   0  0  0  0  0  0  0  0  0  0  0  0
  -22.0919    0.8078  -13.8838 C   0  0  0  0  0  0  0  0  0  0  0  0
  -23.2176    1.5734  -13.8187 F   0  0  0  0  0  0  0  0  0  0  0  0
  -22.4192   -0.2716  -14.6461 F   0  0  0  0  0  0  0  0  0  0  0  0
  -21.8932    0.3294  -12.6245 F   0  0  0  0  0  0  0  0  0  0  0  0
  -15.8816   -2.0995  -12.9796 N   0  0  0  0  0  0  0  0  0  0  0  0
  -16.5279   -2.7540  -13.4100 H   0  0  0  0  0  0  0  0  0  0  0  0
  -15.7975   -2.1250  -11.5392 C   0  0  0  0  0  0  0  0  0  0  0  0
  -15.2633   -3.4499  -11.0257 C   0  0  0  0  0  0  0  0  0  0  0  0
  -15.4634   -4.6096  -11.7864 C   0  0  0  0  0  0  0  0  0  0  0  0
  -14.9293   -5.8104  -11.3424 C   0  0  0  0  0  0  0  0  0  0  0  0
  -14.2111   -5.9414  -10.2085 N   0  0  0  0  0  0  0  0  0  0  0  0
  -14.0156   -4.8155   -9.4885 C   0  0  0  0  0  0  0  0  0  0  0  0
  -14.5043   -3.5693   -9.8533 C   0  0  0  0  0  0  0  0  0  0  0  0
  1  2  1  0  0  0
  2  3  1  0  0  0
  2  6  1  0  0  0
  3  4  2  0  0  0
  4  5  1  0  0  0
  5 21  1  0  0  0
  5  6  2  0  0  0
 21 23  1  0  0  0
 21 22  1  0  0  0
 23 24  1  0  0  0
 24 25  1  0  0  0
 24 29  2  0  0  0
 25 26  2  0  0  0
 26 27  1  0  0  0
 27 28  2  0  0  0
 28 29  1  0  0  0
  6  7  1  0  0  0
  7  8  2  0  0  0
  7  9  1  0  0  0
  9 11  1  0  0  0
  9 10  1  0  0  0
 11 12  1  0  0  0
 11 16  2  0  0  0
 12 13  2  0  0  0
 13 14  1  0  0  0
 14 15  2  0  0  0
 15 17  1  0  0  0
 15 16  1  0  0  0
 17 18  1  0  0  0
 17 19  1  0  0  0
 17 20  1  0  0  0
M  END
> <minimizedAffinity>
-8.81915

$$$$
