CHEMBL395392


 30 34  0  0  0  0  0  0  0  0999 V2000
  -27.9358   -1.9225   -8.0296 C   0  0  0  0  0  0  0  0  0  0  0  0
  -27.8686   -0.8560   -7.2147 N   0  0  0  0  0  0  0  0  0  0  0  0
  -28.4482   -1.2873   -6.0813 N   0  0  0  0  0  0  0  0  0  0  0  0
  -28.8675   -2.5843   -6.1344 C   0  0  0  0  0  0  0  0  0  0  0  0
  -28.5361   -3.0441   -7.3897 C   0  0  0  0  0  0  0  0  0  0  0  0
  -28.5186   -0.6422   -5.3010 H   0  0  0  0  0  0  0  0  0  0  0  0
  -25.1380   -1.4465  -13.3366 C   0  0  0  0  0  0  0  0  0  0  0  0
  -26.4394   -1.6286  -13.8168 C   0  0  0  0  0  0  0  0  0  0  0  0
  -27.5139   -1.8132  -12.9365 C   0  0  0  0  0  0  0  0  0  0  0  0
  -27.2655   -1.8054  -11.5598 C   0  0  0  0  0  0  0  0  0  0  0  0
  -28.1409   -1.9662  -10.5204 N   0  0  0  0  0  0  0  0  0  0  0  0
  -27.4151   -1.8503   -9.4282 C   0  0  0  0  0  0  0  0  0  0  0  0
  -26.0941   -1.6381   -9.7345 N   0  0  0  0  0  0  0  0  0  0  0  0
  -25.9685   -1.6098  -11.0992 C   0  0  0  0  0  0  0  0  0  0  0  0
  -24.8789   -1.4319  -11.9559 C   0  0  0  0  0  0  0  0  0  0  0  0
  -25.3649   -1.5250   -9.0442 H   0  0  0  0  0  0  0  0  0  0  0  0
  -23.1926   -0.1585  -13.7948 C   0  0  0  0  0  0  0  0  0  0  0  0
  -24.0272   -1.2644  -14.1209 O   0  0  0  0  0  0  0  0  0  0  0  0
  -28.7172   -4.3700   -7.8938 C   0  0  0  0  0  0  0  0  0  0  0  0
  -29.1814   -5.4264   -7.2074 C   0  0  0  0  0  0  0  0  0  0  0  0
  -29.1870   -6.7752   -7.7906 C   0  0  0  0  0  0  0  0  0  0  0  0
  -28.0294   -7.2046   -8.4425 C   0  0  0  0  0  0  0  0  0  0  0  0
  -27.8685   -8.4221   -9.0032 N   0  0  0  0  0  0  0  0  0  0  0  0
  -28.9236   -9.2603   -8.9133 C   0  0  0  0  0  0  0  0  0  0  0  0
  -30.1385   -8.9499   -8.2979 C   0  0  0  0  0  0  0  0  0  0  0  0
  -31.1918   -9.8799   -8.2417 C   0  0  0  0  0  0  0  0  0  0  0  0
  -32.3990   -9.5482   -7.6304 C   0  0  0  0  0  0  0  0  0  0  0  0
  -32.5678   -8.2843   -7.0758 C   0  0  0  0  0  0  0  0  0  0  0  0
  -31.5253   -7.3534   -7.1214 C   0  0  0  0  0  0  0  0  0  0  0  0
  -30.2853   -7.6651   -7.7255 C   0  0  0  0  0  0  0  0  0  0  0  0
 17 18  1  0  0  0
 18  7  1  0  0  0
  7  8  1  0  0  0
  7 15  2  0  0  0
  8  9  2  0  0  0
  9 10  1  0  0  0
 10 11  1  0  0  0
 10 14  2  0  0  0
 11 12  2  0  0  0
 12  1  1  0  0  0
 12 13  1  0  0  0
  1  2  2  0  0  0
  1  5  1  0  0  0
  2  3  1  0  0  0
  3  4  1  0  0  0
  3  6  1  0  0  0
  4  5  2  0  0  0
  5 19  1  0  0  0
 19 20  2  0  0  0
 20 21  1  0  0  0
 21 22  1  0  0  0
 21 30  2  0  0  0
 22 23  2  0  0  0
 23 24  1  0  0  0
 24 25  2  0  0  0
 25 26  1  0  0  0
 25 30  1  0  0  0
 26 27  2  0  0  0
 27 28  1  0  0  0
 28 29  2  0  0  0
 29 30  1  0  0  0
 13 14  1  0  0  0
 13 16  1  0  0  0
 14 15  1  0  0  0
M  END
> <minimizedAffinity>
-9.66411

$$$$
