CHEMBL3321895


 29 33  0  0  0  0  0  0  0  0999 V2000
  -23.4721    0.1453  -13.3570 C   0  0  0  0  0  0  0  0  0  0  0  0
  -24.5296   -0.2717  -14.0257 N   0  0  0  0  0  0  0  0  0  0  0  0
  -25.3121   -0.9399  -13.1210 C   0  0  0  0  0  0  0  0  0  0  0  0
  -26.5460   -1.5669  -13.3046 C   0  0  0  0  0  0  0  0  0  0  0  0
  -27.1335   -2.2039  -12.2056 C   0  0  0  0  0  0  0  0  0  0  0  0
  -26.5379   -2.2078  -10.9299 C   0  0  0  0  0  0  0  0  0  0  0  0
  -25.2824   -1.6010  -10.7554 C   0  0  0  0  0  0  0  0  0  0  0  0
  -24.7159   -0.9663  -11.8670 C   0  0  0  0  0  0  0  0  0  0  0  0
  -23.5470   -0.2733  -12.0467 N   0  0  0  0  0  0  0  0  0  0  0  0
  -22.8445   -0.1099  -11.3428 H   0  0  0  0  0  0  0  0  0  0  0  0
  -19.0883    3.2663  -15.4690 C   0  0  0  0  0  0  0  0  0  0  0  0
  -20.2239    2.4423  -14.9386 C   0  0  0  0  0  0  0  0  0  0  0  0
  -20.1878    1.0458  -14.9977 C   0  0  0  0  0  0  0  0  0  0  0  0
  -21.2449    0.2867  -14.4871 C   0  0  0  0  0  0  0  0  0  0  0  0
  -22.3563    0.9118  -13.9079 C   0  0  0  0  0  0  0  0  0  0  0  0
  -22.3832    2.3114  -13.8432 C   0  0  0  0  0  0  0  0  0  0  0  0
  -21.3303    3.0710  -14.3581 C   0  0  0  0  0  0  0  0  0  0  0  0
  -27.1269   -2.9264   -9.8599 N   0  0  0  0  0  0  0  0  0  0  0  0
  -26.6778   -3.8134   -9.6649 H   0  0  0  0  0  0  0  0  0  0  0  0
  -27.6019   -2.3498   -8.6549 C   0  0  0  0  0  0  0  0  0  0  0  0
  -27.3035   -1.0580   -8.4182 N   0  0  0  0  0  0  0  0  0  0  0  0
  -27.8183   -0.5127   -7.3153 C   0  0  0  0  0  0  0  0  0  0  0  0
  -28.6084   -1.1250   -6.4310 N   0  0  0  0  0  0  0  0  0  0  0  0
  -28.8878   -2.4101   -6.6670 C   0  0  0  0  0  0  0  0  0  0  0  0
  -29.7410   -3.0662   -5.7904 C   0  0  0  0  0  0  0  0  0  0  0  0
  -30.0875   -4.4084   -5.9618 C   0  0  0  0  0  0  0  0  0  0  0  0
  -29.5641   -5.1239   -7.0305 C   0  0  0  0  0  0  0  0  0  0  0  0
  -28.7177   -4.4835   -7.9348 C   0  0  0  0  0  0  0  0  0  0  0  0
  -28.3791   -3.1154   -7.7674 C   0  0  0  0  0  0  0  0  0  0  0  0
 11 12  1  0  0  0
 12 13  1  0  0  0
 12 17  2  0  0  0
 13 14  2  0  0  0
 14 15  1  0  0  0
 15  1  1  0  0  0
 15 16  2  0  0  0
  1  2  2  0  0  0
  1  9  1  0  0  0
  2  3  1  0  0  0
  3  4  1  0  0  0
  3  8  2  0  0  0
  4  5  2  0  0  0
  5  6  1  0  0  0
  6 18  1  0  0  0
  6  7  2  0  0  0
 18 20  1  0  0  0
 18 19  1  0  0  0
 20 21  1  0  0  0
 20 29  2  0  0  0
 21 22  2  0  0  0
 22 23  1  0  0  0
 23 24  2  0  0  0
 24 25  1  0  0  0
 24 29  1  0  0  0
 25 26  2  0  0  0
 26 27  1  0  0  0
 27 28  2  0  0  0
 28 29  1  0  0  0
  7  8  1  0  0  0
  8  9  1  0  0  0
  9 10  1  0  0  0
 16 17  1  0  0  0
M  END
> <minimizedAffinity>
-11.24310

$$$$
