CHEMBL3957264


 35 39  0  0  0  0  0  0  0  0999 V2000
  -17.3106    2.0997  -15.6899 N   0  0  0  0  0  0  0  0  0  0  0  0
  -18.7456    1.8248  -15.6469 C   0  0  0  0  0  0  0  0  0  0  0  0
  -19.5604    2.9123  -15.8964 C   0  0  0  0  0  0  0  0  0  0  0  0
  -20.7563    2.9764  -15.2283 C   0  0  0  0  0  0  0  0  0  0  0  0
  -21.2316    1.9895  -14.4672 C   0  0  0  0  0  0  0  0  0  0  0  0
  -22.1411    2.4314  -13.6078 N   0  0  0  0  0  0  0  0  0  0  0  0
  -23.0399    1.5478  -13.1778 C   0  0  0  0  0  0  0  0  0  0  0  0
  -23.0412    0.2571  -13.6231 C   0  0  0  0  0  0  0  0  0  0  0  0
  -21.9011   -0.2607  -14.2641 N   0  0  0  0  0  0  0  0  0  0  0  0
  -20.8388    0.6526  -14.6476 C   0  0  0  0  0  0  0  0  0  0  0  0
  -19.4189    0.6340  -15.1667 C   0  0  0  0  0  0  0  0  0  0  0  0
  -24.3040   -0.4841  -13.4758 C   0  0  0  0  0  0  0  0  0  0  0  0
  -25.0870   -1.2224  -14.4046 C   0  0  0  0  0  0  0  0  0  0  0  0
  -26.2011   -1.7088  -13.8614 N   0  0  0  0  0  0  0  0  0  0  0  0
  -26.1558   -1.2636  -12.5916 N   0  0  0  0  0  0  0  0  0  0  0  0
  -26.8929   -1.9313  -11.5414 C   0  0  0  0  0  0  0  0  0  0  0  0
  -25.1670   -0.3394  -12.3948 C   0  0  0  0  0  0  0  0  0  0  0  0
  -13.9541    0.3202  -15.4200 C   0  0  0  0  0  0  0  0  0  0  0  0
  -14.0183   -0.0766  -14.0932 C   0  0  0  0  0  0  0  0  0  0  0  0
  -15.2024    0.0747  -13.3859 C   0  0  0  0  0  0  0  0  0  0  0  0
  -16.3002    0.7043  -13.9813 C   0  0  0  0  0  0  0  0  0  0  0  0
  -16.2345    1.2753  -15.2512 C   0  0  0  0  0  0  0  0  0  0  0  0
  -15.0816    0.9347  -16.0128 C   0  0  0  0  0  0  0  0  0  0  0  0
  -12.1038    1.3799  -16.5023 C   0  0  0  0  0  0  0  0  0  0  0  0
  -12.8265    0.1810  -16.2017 O   0  0  0  0  0  0  0  0  0  0  0  0
  -15.4004   -0.3156  -12.0854 O   0  0  0  0  0  0  0  0  0  0  0  0
  -15.6538   -1.7016  -11.8924 C   0  0  0  0  0  0  0  0  0  0  0  0
  -17.0901    3.6136  -15.6921 C   0  0  0  0  0  0  0  0  0  0  0  0
  -16.1661    4.0249  -16.8817 C   0  0  0  0  0  0  0  0  0  0  0  0
  -15.0279    4.9555  -16.6911 N   0  0  0  0  0  0  0  0  0  0  0  0
  -14.1501    4.3887  -15.6343 C   0  0  0  0  0  0  0  0  0  0  0  0
  -12.8990    5.2282  -15.3701 C   0  0  0  0  0  0  0  0  0  0  0  0
  -12.1350    5.5009  -16.6580 C   0  0  0  0  0  0  0  0  0  0  0  0
  -13.0737    6.0631  -17.7173 C   0  0  0  0  0  0  0  0  0  0  0  0
  -14.2769    5.1457  -17.9344 C   0  0  0  0  0  0  0  0  0  0  0  0
 24 25  1  0  0  0
 25 18  1  0  0  0
 18 19  1  0  0  0
 18 23  2  0  0  0
 19 20  2  0  0  0
 20 26  1  0  0  0
 20 21  1  0  0  0
 26 27  1  0  0  0
 21 22  2  0  0  0
 22  1  1  0  0  0
 22 23  1  0  0  0
  1 28  1  0  0  0
  1  2  1  0  0  0
 28 29  1  0  0  0
 29 30  1  0  0  0
 30 31  1  0  0  0
 30 35  1  0  0  0
 31 32  1  0  0  0
 32 33  1  0  0  0
 33 34  1  0  0  0
 34 35  1  0  0  0
  2  3  1  0  0  0
  2 11  2  0  0  0
  3  4  2  0  0  0
  4  5  1  0  0  0
  5  6  1  0  0  0
  5 10  2  0  0  0
  6  7  2  0  0  0
  7  8  1  0  0  0
  8 12  1  0  0  0
  8  9  2  0  0  0
 12 13  1  0  0  0
 12 17  2  0  0  0
 13 14  2  0  0  0
 14 15  1  0  0  0
 15 16  1  0  0  0
 15 17  1  0  0  0
  9 10  1  0  0  0
 10 11  1  0  0  0
M  END
> <minimizedAffinity>
-8.21533

$$$$
