CHEMBL3577123


 33 35  0  0  0  0  0  0  0  0999 V2000
  -29.4419   -5.0407   -6.9489 C   0  0  0  0  0  0  0  0  0  0  0  0
  -28.5561   -4.6567   -7.9881 C   0  0  0  0  0  0  0  0  0  0  0  0
  -27.9938   -3.3820   -8.1014 C   0  0  0  0  0  0  0  0  0  0  0  0
  -28.3601   -2.4340   -7.1576 C   0  0  0  0  0  0  0  0  0  0  0  0
  -27.8361   -1.1999   -7.2103 F   0  0  0  0  0  0  0  0  0  0  0  0
  -29.2841   -2.7390   -6.1579 C   0  0  0  0  0  0  0  0  0  0  0  0
  -29.8290   -4.0370   -6.0322 C   0  0  0  0  0  0  0  0  0  0  0  0
  -30.7908   -4.2781   -4.8994 C   0  0  0  0  0  0  0  0  0  0  0  0
  -32.1798  -10.8258   -6.9079 C   0  0  0  0  0  0  0  0  0  0  0  0
  -33.1277   -9.9626   -7.2884 N   0  0  0  0  0  0  0  0  0  0  0  0
  -32.7651   -8.6777   -7.3795 C   0  0  0  0  0  0  0  0  0  0  0  0
  -31.4891   -8.2381   -7.1028 C   0  0  0  0  0  0  0  0  0  0  0  0
  -31.1025   -6.8946   -7.2190 C   0  0  0  0  0  0  0  0  0  0  0  0
  -29.8116   -6.4797   -6.8696 C   0  0  0  0  0  0  0  0  0  0  0  0
  -28.9891   -7.5078   -6.4282 C   0  0  0  0  0  0  0  0  0  0  0  0
  -29.3370   -8.8266   -6.3607 N   0  0  0  0  0  0  0  0  0  0  0  0
  -30.5794   -9.1984   -6.6888 C   0  0  0  0  0  0  0  0  0  0  0  0
  -30.9217  -10.4822   -6.6115 N   0  0  0  0  0  0  0  0  0  0  0  0
  -33.8745  -12.4621   -6.5517 C   0  0  0  0  0  0  0  0  0  0  0  0
  -32.4823  -12.1770   -6.8179 N   0  0  0  0  0  0  0  0  0  0  0  0
  -32.0860  -12.6168   -7.6416 H   0  0  0  0  0  0  0  0  0  0  0  0
  -27.0444   -3.0454   -9.1012 N   0  0  0  0  0  0  0  0  0  0  0  0
  -27.2898   -2.2025  -10.1581 C   0  0  0  0  0  0  0  0  0  0  0  0
  -28.3142   -1.5457  -10.3103 O   0  0  0  0  0  0  0  0  0  0  0  0
  -26.2725   -2.1686  -11.0930 N   0  0  0  0  0  0  0  0  0  0  0  0
  -26.0906   -3.3275   -8.9260 H   0  0  0  0  0  0  0  0  0  0  0  0
  -25.3396   -2.3812  -10.7750 H   0  0  0  0  0  0  0  0  0  0  0  0
  -26.4152   -1.1907  -12.1583 C   0  0  0  0  0  0  0  0  0  0  0  0
  -25.4234   -1.3423  -13.3104 C   0  0  0  0  0  0  0  0  0  0  0  0
  -24.0170   -0.7417  -12.9987 C   0  0  0  0  0  0  0  0  0  0  0  0
  -23.3471   -0.2107  -14.2787 C   0  0  0  0  0  0  0  0  0  0  0  0
  -24.1787    0.4295  -12.0128 C   0  0  0  0  0  0  0  0  0  0  0  0
  -23.0890   -1.7858  -12.3460 C   0  0  0  0  0  0  0  0  0  0  0  0
 19 20  1  0  0  0
 20  9  1  0  0  0
 20 21  1  0  0  0
  9 10  1  0  0  0
  9 18  2  0  0  0
 10 11  2  0  0  0
 11 12  1  0  0  0
 12 13  1  0  0  0
 12 17  2  0  0  0
 13 14  2  0  0  0
 14  1  1  0  0  0
 14 15  1  0  0  0
  1  2  1  0  0  0
  1  7  2  0  0  0
  2  3  2  0  0  0
  3 22  1  0  0  0
  3  4  1  0  0  0
 22 23  1  0  0  0
 22 26  1  0  0  0
 23 24  2  0  0  0
 23 25  1  0  0  0
 25 28  1  0  0  0
 25 27  1  0  0  0
 28 29  1  0  0  0
 29 30  1  0  0  0
 30 31  1  0  0  0
 30 32  1  0  0  0
 30 33  1  0  0  0
  4  5  1  0  0  0
  4  6  2  0  0  0
  6  7  1  0  0  0
  7  8  1  0  0  0
 15 16  2  0  0  0
 16 17  1  0  0  0
 17 18  1  0  0  0
M  END
> <minimizedAffinity>
-10.05100

$$$$
