CHEMBL268826


 37 41  0  0  0  0  0  0  0  0999 V2000
  -27.9917   -7.7156   -4.3630 C   0  0  0  0  0  0  0  0  0  0  0  0
  -29.3590   -7.4382   -4.3577 C   0  0  0  0  0  0  0  0  0  0  0  0
  -29.8243   -6.1735   -4.7150 C   0  0  0  0  0  0  0  0  0  0  0  0
  -28.9319   -5.1410   -5.0424 C   0  0  0  0  0  0  0  0  0  0  0  0
  -27.5615   -5.3929   -4.9056 C   0  0  0  0  0  0  0  0  0  0  0  0
  -27.0893   -6.6762   -4.5829 C   0  0  0  0  0  0  0  0  0  0  0  0
  -29.4552   -3.8533   -5.5300 C   0  0  0  0  0  0  0  0  0  0  0  0
  -30.6641   -3.8528   -6.1954 C   0  0  0  0  0  0  0  0  0  0  0  0
  -31.0653   -2.3537   -6.8476 S   0  0  0  0  0  0  0  0  0  0  0  0
  -29.7302   -1.5533   -6.0855 C   0  0  0  0  0  0  0  0  0  0  0  0
  -29.4532   -0.1566   -6.1000 C   0  0  0  0  0  0  0  0  0  0  0  0
  -28.2567    0.1731   -5.4732 C   0  0  0  0  0  0  0  0  0  0  0  0
  -27.3893   -0.6904   -4.9185 N   0  0  0  0  0  0  0  0  0  0  0  0
  -27.6638   -2.0073   -4.9130 C   0  0  0  0  0  0  0  0  0  0  0  0
  -26.6529   -2.7832   -4.3590 N   0  0  0  0  0  0  0  0  0  0  0  0
  -28.8803   -2.4983   -5.4646 C   0  0  0  0  0  0  0  0  0  0  0  0
  -25.8252   -2.2051   -4.2530 H   0  0  0  0  0  0  0  0  0  0  0  0
  -26.5006   -3.6537   -4.8542 H   0  0  0  0  0  0  0  0  0  0  0  0
  -30.3149    0.8740   -6.7260 C   0  0  0  0  0  0  0  0  0  0  0  0
  -31.2035    1.6654   -5.9843 C   0  0  0  0  0  0  0  0  0  0  0  0
  -32.0202    2.5825   -6.6307 C   0  0  0  0  0  0  0  0  0  0  0  0
  -31.9821    2.8154   -7.9557 N   0  0  0  0  0  0  0  0  0  0  0  0
  -31.0947    2.0907   -8.6625 C   0  0  0  0  0  0  0  0  0  0  0  0
  -30.2658    1.1240   -8.1066 C   0  0  0  0  0  0  0  0  0  0  0  0
  -25.8506  -10.6287   -4.0323 N   0  0  0  0  0  0  0  0  0  0  0  0
  -26.1468   -9.2819   -4.1569 C   0  0  0  0  0  0  0  0  0  0  0  0
  -25.3174   -8.3817   -4.1776 O   0  0  0  0  0  0  0  0  0  0  0  0
  -27.5177   -9.0459   -4.2247 N   0  0  0  0  0  0  0  0  0  0  0  0
  -26.5951  -11.2763   -4.2454 H   0  0  0  0  0  0  0  0  0  0  0  0
  -28.0832   -9.6664   -3.6649 H   0  0  0  0  0  0  0  0  0  0  0  0
  -21.3979  -11.7441   -5.8761 C   0  0  0  0  0  0  0  0  0  0  0  0
  -22.3619  -11.7270   -4.7276 C   0  0  0  0  0  0  0  0  0  0  0  0
  -21.9805  -12.2435   -3.4856 C   0  0  0  0  0  0  0  0  0  0  0  0
  -22.8694  -12.2382   -2.4185 C   0  0  0  0  0  0  0  0  0  0  0  0
  -24.1510  -11.7132   -2.5887 C   0  0  0  0  0  0  0  0  0  0  0  0
  -24.5588  -11.1736   -3.8145 C   0  0  0  0  0  0  0  0  0  0  0  0
  -23.6561  -11.1867   -4.8863 C   0  0  0  0  0  0  0  0  0  0  0  0
 31 32  1  0  0  0
 32 33  1  0  0  0
 32 37  2  0  0  0
 33 34  2  0  0  0
 34 35  1  0  0  0
 35 36  2  0  0  0
 36 25  1  0  0  0
 36 37  1  0  0  0
 25 26  1  0  0  0
 25 29  1  0  0  0
 26 27  2  0  0  0
 26 28  1  0  0  0
 28  1  1  0  0  0
 28 30  1  0  0  0
  1  2  1  0  0  0
  1  6  2  0  0  0
  2  3  2  0  0  0
  3  4  1  0  0  0
  4  7  1  0  0  0
  4  5  2  0  0  0
  7  8  2  0  0  0
  7 16  1  0  0  0
  8  9  1  0  0  0
  9 10  1  0  0  0
 10 11  1  0  0  0
 10 16  2  0  0  0
 11 19  1  0  0  0
 11 12  2  0  0  0
 19 20  1  0  0  0
 19 24  2  0  0  0
 20 21  2  0  0  0
 21 22  1  0  0  0
 22 23  2  0  0  0
 23 24  1  0  0  0
 12 13  1  0  0  0
 13 14  2  0  0  0
 14 15  1  0  0  0
 14 16  1  0  0  0
 15 17  1  0  0  0
 15 18  1  0  0  0
  5  6  1  0  0  0
M  END
> <minimizedAffinity>
-0.79207

$$$$
