CHEMBL3904099


 32 35  0  0  0  0  0  0  0  0999 V2000
  -28.0583   -8.2132   -4.3599 C   0  0  0  0  0  0  0  0  0  0  0  0
  -29.3716   -8.0807   -3.9513 C   0  0  0  0  0  0  0  0  0  0  0  0
  -29.9477   -6.4882   -4.0109 S   0  0  0  0  0  0  0  0  0  0  0  0
  -28.4466   -5.9020   -4.6078 C   0  0  0  0  0  0  0  0  0  0  0  0
  -27.5086   -6.9230   -4.6739 C   0  0  0  0  0  0  0  0  0  0  0  0
  -28.3554   -4.5100   -4.9839 C   0  0  0  0  0  0  0  0  0  0  0  0
  -28.0382   -3.4726   -4.1178 C   0  0  0  0  0  0  0  0  0  0  0  0
  -28.0137   -2.2619   -4.8361 C   0  0  0  0  0  0  0  0  0  0  0  0
  -27.6895   -0.9374   -4.4846 C   0  0  0  0  0  0  0  0  0  0  0  0
  -27.7046    0.0556   -5.4659 C   0  0  0  0  0  0  0  0  0  0  0  0
  -28.0548   -0.2556   -6.7750 C   0  0  0  0  0  0  0  0  0  0  0  0
  -28.4094   -1.5598   -7.1354 C   0  0  0  0  0  0  0  0  0  0  0  0
  -28.3864   -2.5599   -6.1445 C   0  0  0  0  0  0  0  0  0  0  0  0
  -28.6241   -3.9399   -6.2296 N   0  0  0  0  0  0  0  0  0  0  0  0
  -29.0280   -4.5778   -7.4236 C   0  0  0  0  0  0  0  0  0  0  0  0
  -28.3523   -5.7352   -7.6775 N   0  0  0  0  0  0  0  0  0  0  0  0
  -29.8396   -4.0653   -8.1782 O   0  0  0  0  0  0  0  0  0  0  0  0
  -27.5047   -5.9780   -7.1786 H   0  0  0  0  0  0  0  0  0  0  0  0
  -28.4824   -6.1351   -8.5977 H   0  0  0  0  0  0  0  0  0  0  0  0
  -25.4797  -10.7864   -4.3697 N   0  0  0  0  0  0  0  0  0  0  0  0
  -26.0090   -9.5215   -4.2013 C   0  0  0  0  0  0  0  0  0  0  0  0
  -25.3551   -8.5551   -3.8204 O   0  0  0  0  0  0  0  0  0  0  0  0
  -27.3695   -9.4320   -4.4743 N   0  0  0  0  0  0  0  0  0  0  0  0
  -26.0611  -11.4935   -4.7912 H   0  0  0  0  0  0  0  0  0  0  0  0
  -27.9211  -10.2746   -4.4787 H   0  0  0  0  0  0  0  0  0  0  0  0
  -21.0735  -12.4135   -5.9841 C   0  0  0  0  0  0  0  0  0  0  0  0
  -21.9632  -11.9499   -4.8687 C   0  0  0  0  0  0  0  0  0  0  0  0
  -21.4609  -11.8996   -3.5657 C   0  0  0  0  0  0  0  0  0  0  0  0
  -22.2731  -11.4807   -2.5256 C   0  0  0  0  0  0  0  0  0  0  0  0
  -23.5930  -11.1121   -2.7802 C   0  0  0  0  0  0  0  0  0  0  0  0
  -24.1317  -11.1456   -4.0737 C   0  0  0  0  0  0  0  0  0  0  0  0
  -23.2983  -11.5681   -5.1186 C   0  0  0  0  0  0  0  0  0  0  0  0
 26 27  1  0  0  0
 27 28  1  0  0  0
 27 32  2  0  0  0
 28 29  2  0  0  0
 29 30  1  0  0  0
 30 31  2  0  0  0
 31 20  1  0  0  0
 31 32  1  0  0  0
 20 21  1  0  0  0
 20 24  1  0  0  0
 21 22  2  0  0  0
 21 23  1  0  0  0
 23  1  1  0  0  0
 23 25  1  0  0  0
  1  2  2  0  0  0
  1  5  1  0  0  0
  2  3  1  0  0  0
  3  4  1  0  0  0
  4  6  1  0  0  0
  4  5  2  0  0  0
  6  7  2  0  0  0
  6 14  1  0  0  0
  7  8  1  0  0  0
  8  9  1  0  0  0
  8 13  2  0  0  0
  9 10  2  0  0  0
 10 11  1  0  0  0
 11 12  2  0  0  0
 12 13  1  0  0  0
 13 14  1  0  0  0
 14 15  1  0  0  0
 15 16  1  0  0  0
 15 17  2  0  0  0
 16 18  1  0  0  0
 16 19  1  0  0  0
M  END
> <minimizedAffinity>
-9.47000

$$$$
