CHEMBL3633303


 33 36  0  0  0  0  0  0  0  0999 V2000
  -28.9946   -3.9483   -6.6918 C   0  0  0  0  0  0  0  0  0  0  0  0
  -28.4316   -3.9754   -5.4154 C   0  0  0  0  0  0  0  0  0  0  0  0
  -28.5208   -5.1212   -4.6318 C   0  0  0  0  0  0  0  0  0  0  0  0
  -29.1669   -6.2538   -5.1271 C   0  0  0  0  0  0  0  0  0  0  0  0
  -29.7972   -6.2468   -6.3850 C   0  0  0  0  0  0  0  0  0  0  0  0
  -29.7262   -5.0524   -7.1379 C   0  0  0  0  0  0  0  0  0  0  0  0
  -30.5855   -7.4104   -6.8494 C   0  0  0  0  0  0  0  0  0  0  0  0
  -31.9305   -7.5865   -6.4375 C   0  0  0  0  0  0  0  0  0  0  0  0
  -32.7711   -8.5398   -7.0101 C   0  0  0  0  0  0  0  0  0  0  0  0
  -32.3280   -9.3322   -8.0640 C   0  0  0  0  0  0  0  0  0  0  0  0
  -30.9863   -9.2035   -8.4311 C   0  0  0  0  0  0  0  0  0  0  0  0
  -30.2712   -9.8030   -9.4329 N   0  0  0  0  0  0  0  0  0  0  0  0
  -28.9551   -9.5605   -9.3902 N   0  0  0  0  0  0  0  0  0  0  0  0
  -28.8285   -8.6904   -8.3926 C   0  0  0  0  0  0  0  0  0  0  0  0
  -27.6263   -8.2444   -7.9913 N   0  0  0  0  0  0  0  0  0  0  0  0
  -30.0877   -8.3349   -7.8101 C   0  0  0  0  0  0  0  0  0  0  0  0
  -30.6270  -10.3972  -10.1717 H   0  0  0  0  0  0  0  0  0  0  0  0
  -26.8201   -8.7648   -8.3195 H   0  0  0  0  0  0  0  0  0  0  0  0
  -27.5134   -7.8880   -7.0469 H   0  0  0  0  0  0  0  0  0  0  0  0
  -27.8423   -1.8453   -9.4234 N   0  0  0  0  0  0  0  0  0  0  0  0
  -27.9423   -2.9891   -8.6544 C   0  0  0  0  0  0  0  0  0  0  0  0
  -27.3710   -4.0505   -8.8960 O   0  0  0  0  0  0  0  0  0  0  0  0
  -28.7934   -2.8448   -7.5630 N   0  0  0  0  0  0  0  0  0  0  0  0
  -28.2047   -0.9993   -9.0266 H   0  0  0  0  0  0  0  0  0  0  0  0
  -29.6005   -2.2612   -7.7390 H   0  0  0  0  0  0  0  0  0  0  0  0
  -24.9019   -1.3885  -14.3697 C   0  0  0  0  0  0  0  0  0  0  0  0
  -25.6375   -1.5073  -13.0659 C   0  0  0  0  0  0  0  0  0  0  0  0
  -27.0222   -1.6628  -13.0894 C   0  0  0  0  0  0  0  0  0  0  0  0
  -27.7505   -1.7717  -11.9008 C   0  0  0  0  0  0  0  0  0  0  0  0
  -27.1250   -1.7424  -10.6516 C   0  0  0  0  0  0  0  0  0  0  0  0
  -25.7394   -1.5901  -10.6190 C   0  0  0  0  0  0  0  0  0  0  0  0
  -25.0008   -1.4664  -11.8144 C   0  0  0  0  0  0  0  0  0  0  0  0
  -23.2876   -1.2732  -11.6980 Cl  0  0  0  0  0  0  0  0  0  0  0  0
 26 27  1  0  0  0
 27 28  1  0  0  0
 27 32  2  0  0  0
 28 29  2  0  0  0
 29 30  1  0  0  0
 30 20  1  0  0  0
 30 31  2  0  0  0
 20 21  1  0  0  0
 20 24  1  0  0  0
 21 22  2  0  0  0
 21 23  1  0  0  0
 23  1  1  0  0  0
 23 25  1  0  0  0
  1  2  1  0  0  0
  1  6  2  0  0  0
  2  3  2  0  0  0
  3  4  1  0  0  0
  4  5  2  0  0  0
  5  7  1  0  0  0
  5  6  1  0  0  0
  7  8  1  0  0  0
  7 16  2  0  0  0
  8  9  2  0  0  0
  9 10  1  0  0  0
 10 11  2  0  0  0
 11 12  1  0  0  0
 11 16  1  0  0  0
 12 13  1  0  0  0
 12 17  1  0  0  0
 13 14  2  0  0  0
 14 15  1  0  0  0
 14 16  1  0  0  0
 15 18  1  0  0  0
 15 19  1  0  0  0
 31 32  1  0  0  0
 32 33  1  0  0  0
M  END
> <minimizedAffinity>
-10.17060

$$$$
