CHEMBL306012


 23 25  0  0  0  0  0  0  0  0999 V2000
  -15.3138    2.9626  -16.4401 N   0  0  0  0  0  0  0  0  0  0  0  0
  -16.6896    3.0131  -16.4337 C   0  0  0  0  0  0  0  0  0  0  0  0
  -17.1711    2.3053  -15.3456 C   0  0  0  0  0  0  0  0  0  0  0  0
  -16.0276    1.7878  -14.6475 C   0  0  0  0  0  0  0  0  0  0  0  0
  -15.7755    0.9914  -13.5111 C   0  0  0  0  0  0  0  0  0  0  0  0
  -16.7486    0.4142  -12.7029 N   0  0  0  0  0  0  0  0  0  0  0  0
  -14.5037    0.7240  -13.1598 N   0  0  0  0  0  0  0  0  0  0  0  0
  -13.5161    1.2209  -13.9185 C   0  0  0  0  0  0  0  0  0  0  0  0
  -13.6236    1.9638  -15.0254 N   0  0  0  0  0  0  0  0  0  0  0  0
  -14.9043    2.2231  -15.3473 C   0  0  0  0  0  0  0  0  0  0  0  0
  -17.5605    0.0963  -13.2176 H   0  0  0  0  0  0  0  0  0  0  0  0
  -16.3214   -0.2798  -12.0995 H   0  0  0  0  0  0  0  0  0  0  0  0
  -18.6034    2.1612  -15.0742 C   0  0  0  0  0  0  0  0  0  0  0  0
  -19.2437    0.9189  -15.2077 C   0  0  0  0  0  0  0  0  0  0  0  0
  -20.5871    0.7630  -14.8450 C   0  0  0  0  0  0  0  0  0  0  0  0
  -21.2943    1.8437  -14.3258 C   0  0  0  0  0  0  0  0  0  0  0  0
  -22.9194    1.6360  -13.8036 Cl  0  0  0  0  0  0  0  0  0  0  0  0
  -20.6889    3.0913  -14.2234 C   0  0  0  0  0  0  0  0  0  0  0  0
  -19.3620    3.2535  -14.6333 C   0  0  0  0  0  0  0  0  0  0  0  0
  -15.1899    4.4415  -18.4770 C   0  0  0  0  0  0  0  0  0  0  0  0
  -14.4151    3.6078  -17.4254 C   0  0  0  0  0  0  0  0  0  0  0  0
  -13.6091    2.5507  -18.2093 C   0  0  0  0  0  0  0  0  0  0  0  0
  -13.4505    4.5749  -16.7074 C   0  0  0  0  0  0  0  0  0  0  0  0
 20 21  1  0  0  0
 21 22  1  0  0  0
 21 23  1  0  0  0
 21  1  1  0  0  0
  1  2  1  0  0  0
  1 10  1  0  0  0
  2  3  2  0  0  0
  3 13  1  0  0  0
  3  4  1  0  0  0
 13 14  1  0  0  0
 13 19  2  0  0  0
 14 15  2  0  0  0
 15 16  1  0  0  0
 16 17  1  0  0  0
 16 18  2  0  0  0
 18 19  1  0  0  0
  4  5  1  0  0  0
  4 10  2  0  0  0
  5  6  1  0  0  0
  5  7  2  0  0  0
  6 11  1  0  0  0
  6 12  1  0  0  0
  7  8  1  0  0  0
  8  9  2  0  0  0
  9 10  1  0  0  0
M  END
> <minimizedAffinity>
-7.50822

$$$$
