CHEMBL3397940


 31 33  0  0  0  0  0  0  0  0999 V2000
  -15.6234   -1.0191  -14.0331 N   0  0  0  0  0  0  0  0  0  0  0  0
  -15.4976    0.3214  -13.7135 C   0  0  0  0  0  0  0  0  0  0  0  0
  -14.7387    0.7779  -12.8578 O   0  0  0  0  0  0  0  0  0  0  0  0
  -16.1989   -1.2689  -14.8233 H   0  0  0  0  0  0  0  0  0  0  0  0
  -13.7646   -4.1941  -11.9051 C   0  0  0  0  0  0  0  0  0  0  0  0
  -13.3972   -3.9223  -13.2205 C   0  0  0  0  0  0  0  0  0  0  0  0
  -13.9880   -2.8821  -13.9347 C   0  0  0  0  0  0  0  0  0  0  0  0
  -14.9768   -2.0802  -13.3573 C   0  0  0  0  0  0  0  0  0  0  0  0
  -15.3260   -2.3212  -12.0279 C   0  0  0  0  0  0  0  0  0  0  0  0
  -14.7060   -3.3467  -11.2914 C   0  0  0  0  0  0  0  0  0  0  0  0
  -15.1299   -3.3957   -9.6138 Cl  0  0  0  0  0  0  0  0  0  0  0  0
  -13.1087   -5.2812  -11.3917 O   0  0  0  0  0  0  0  0  0  0  0  0
  -13.0504   -6.4306  -12.2314 C   0  0  0  0  0  0  0  0  0  0  0  0
  -14.2101   -7.3935  -11.9350 C   0  0  0  0  0  0  0  0  0  0  0  0
  -15.5691   -6.9699  -13.8850 C   0  0  0  0  0  0  0  0  0  0  0  0
  -14.7910   -7.9776  -13.1628 N   0  0  0  0  0  0  0  0  0  0  0  0
  -13.7734   -8.5416  -14.0514 C   0  0  0  0  0  0  0  0  0  0  0  0
  -16.3318    1.3052  -14.4473 C   0  0  0  0  0  0  0  0  0  0  0  0
  -15.8746    2.0742  -15.5196 C   0  0  0  0  0  0  0  0  0  0  0  0
  -16.7750    2.8788  -16.2153 C   0  0  0  0  0  0  0  0  0  0  0  0
  -18.1321    2.8926  -15.8639 C   0  0  0  0  0  0  0  0  0  0  0  0
  -18.6277    2.1065  -14.8106 C   0  0  0  0  0  0  0  0  0  0  0  0
  -17.6953    1.3444  -14.0982 C   0  0  0  0  0  0  0  0  0  0  0  0
  -20.0747    2.0283  -14.5020 C   0  0  0  0  0  0  0  0  0  0  0  0
  -20.8634    3.1801  -14.3111 C   0  0  0  0  0  0  0  0  0  0  0  0
  -22.2281    3.0901  -14.0107 C   0  0  0  0  0  0  0  0  0  0  0  0
  -22.8416    1.8450  -13.9172 C   0  0  0  0  0  0  0  0  0  0  0  0
  -22.0771    0.7011  -14.0988 C   0  0  0  0  0  0  0  0  0  0  0  0
  -22.6336   -0.5430  -14.0452 O   0  0  0  0  0  0  0  0  0  0  0  0
  -20.7123    0.7845  -14.3571 C   0  0  0  0  0  0  0  0  0  0  0  0
  -23.5970   -0.4460  -14.0846 H   0  0  0  0  0  0  0  0  0  0  0  0
 15 16  1  0  0  0
 16 17  1  0  0  0
 16 14  1  0  0  0
 14 13  1  0  0  0
 13 12  1  0  0  0
 12  5  1  0  0  0
  5  6  1  0  0  0
  5 10  2  0  0  0
  6  7  2  0  0  0
  7  8  1  0  0  0
  8  1  1  0  0  0
  8  9  2  0  0  0
  1  2  1  0  0  0
  1  4  1  0  0  0
  2  3  2  0  0  0
  2 18  1  0  0  0
 18 19  1  0  0  0
 18 23  2  0  0  0
 19 20  2  0  0  0
 20 21  1  0  0  0
 21 22  2  0  0  0
 22 24  1  0  0  0
 22 23  1  0  0  0
 24 25  1  0  0  0
 24 30  2  0  0  0
 25 26  2  0  0  0
 26 27  1  0  0  0
 27 28  2  0  0  0
 28 29  1  0  0  0
 28 30  1  0  0  0
 29 31  1  0  0  0
  9 10  1  0  0  0
 10 11  1  0  0  0
M  END
> <minimizedAffinity>
-9.32291

$$$$
