CHEMBL1964777


 22 24  0  0  0  0  0  0  0  0999 V2000
  -29.2773   -6.9034   -7.1228 C   0  0  0  0  0  0  0  0  0  0  0  0
  -28.6551   -5.8325   -6.5079 C   0  0  0  0  0  0  0  0  0  0  0  0
  -29.4006   -5.2888   -5.4020 C   0  0  0  0  0  0  0  0  0  0  0  0
  -29.1299   -4.2044   -4.5360 C   0  0  0  0  0  0  0  0  0  0  0  0
  -30.1352   -3.8694   -3.6283 C   0  0  0  0  0  0  0  0  0  0  0  0
  -31.2676   -4.5780   -3.4341 N   0  0  0  0  0  0  0  0  0  0  0  0
  -31.4897   -5.6628   -4.2032 C   0  0  0  0  0  0  0  0  0  0  0  0
  -30.5836   -6.0051   -5.2099 C   0  0  0  0  0  0  0  0  0  0  0  0
  -30.7397   -7.2939   -6.3356 S   0  0  0  0  0  0  0  0  0  0  0  0
  -27.6295   -7.2159   -8.8469 N   0  0  0  0  0  0  0  0  0  0  0  0
  -28.8006   -7.6438   -8.2802 C   0  0  0  0  0  0  0  0  0  0  0  0
  -29.3756   -8.6166   -8.7568 O   0  0  0  0  0  0  0  0  0  0  0  0
  -27.2735   -7.7306   -9.6406 H   0  0  0  0  0  0  0  0  0  0  0  0
  -27.1080   -6.4371   -8.4774 H   0  0  0  0  0  0  0  0  0  0  0  0
  -27.9489   -3.5015   -4.6698 O   0  0  0  0  0  0  0  0  0  0  0  0
  -27.9638   -2.2907   -5.3301 C   0  0  0  0  0  0  0  0  0  0  0  0
  -28.0032   -2.1655   -6.7252 C   0  0  0  0  0  0  0  0  0  0  0  0
  -27.9427   -0.9036   -7.3211 C   0  0  0  0  0  0  0  0  0  0  0  0
  -27.9064    0.2373   -6.5233 C   0  0  0  0  0  0  0  0  0  0  0  0
  -27.9471    0.1066   -5.1390 C   0  0  0  0  0  0  0  0  0  0  0  0
  -27.9468    1.2078   -4.3764 F   0  0  0  0  0  0  0  0  0  0  0  0
  -27.9766   -1.1466   -4.5337 C   0  0  0  0  0  0  0  0  0  0  0  0
 10 11  1  0  0  0
 10 13  1  0  0  0
 10 14  1  0  0  0
 11 12  2  0  0  0
 11  1  1  0  0  0
  1  2  2  0  0  0
  1  9  1  0  0  0
  2  3  1  0  0  0
  3  4  1  0  0  0
  3  8  2  0  0  0
  4 15  1  0  0  0
  4  5  2  0  0  0
 15 16  1  0  0  0
 16 17  1  0  0  0
 16 22  2  0  0  0
 17 18  2  0  0  0
 18 19  1  0  0  0
 19 20  2  0  0  0
 20 21  1  0  0  0
 20 22  1  0  0  0
  5  6  1  0  0  0
  6  7  2  0  0  0
  7  8  1  0  0  0
  8  9  1  0  0  0
M  END
> <minimizedAffinity>
-7.94144

$$$$
