CHEMBL1933080


 42 46  0  0  0  0  0  0  0  0999 V2000
  -18.1755    1.1272  -14.9818 C   0  0  0  0  0  0  0  0  0  0  0  0
  -19.4676    0.6689  -14.7522 C   0  0  0  0  0  0  0  0  0  0  0  0
  -20.5409    1.5417  -14.4866 C   0  0  0  0  0  0  0  0  0  0  0  0
  -21.8341    1.0949  -14.1973 C   0  0  0  0  0  0  0  0  0  0  0  0
  -22.8378    1.9538  -13.9543 N   0  0  0  0  0  0  0  0  0  0  0  0
  -22.5347    3.2546  -13.9978 C   0  0  0  0  0  0  0  0  0  0  0  0
  -21.3265    3.7808  -14.2284 N   0  0  0  0  0  0  0  0  0  0  0  0
  -20.3233    2.9183  -14.4650 C   0  0  0  0  0  0  0  0  0  0  0  0
  -19.0359    3.3820  -14.6852 C   0  0  0  0  0  0  0  0  0  0  0  0
  -17.9490    2.5224  -14.9433 C   0  0  0  0  0  0  0  0  0  0  0  0
  -16.2354   -0.0644  -14.1158 C   0  0  0  0  0  0  0  0  0  0  0  0
  -17.1279    0.2726  -15.1714 O   0  0  0  0  0  0  0  0  0  0  0  0
  -22.0873   -0.3070  -14.1477 N   0  0  0  0  0  0  0  0  0  0  0  0
  -21.9027   -0.7093  -15.0603 H   0  0  0  0  0  0  0  0  0  0  0  0
  -23.1782   -0.9285  -13.5118 C   0  0  0  0  0  0  0  0  0  0  0  0
  -24.3882   -1.0723  -14.1895 C   0  0  0  0  0  0  0  0  0  0  0  0
  -25.5114   -1.5812  -13.5321 C   0  0  0  0  0  0  0  0  0  0  0  0
  -25.4439   -1.9847  -12.1948 C   0  0  0  0  0  0  0  0  0  0  0  0
  -24.2005   -1.9697  -11.5609 C   0  0  0  0  0  0  0  0  0  0  0  0
  -23.0778   -1.4613  -12.2223 C   0  0  0  0  0  0  0  0  0  0  0  0
  -26.5721   -2.3543  -11.4288 N   0  0  0  0  0  0  0  0  0  0  0  0
  -26.7941   -2.0168  -10.1084 C   0  0  0  0  0  0  0  0  0  0  0  0
  -26.1260   -1.2238   -9.4586 O   0  0  0  0  0  0  0  0  0  0  0  0
  -27.8585   -2.7326   -9.5602 N   0  0  0  0  0  0  0  0  0  0  0  0
  -27.2833   -2.8992  -11.8911 H   0  0  0  0  0  0  0  0  0  0  0  0
  -27.9408   -3.6797   -9.9029 H   0  0  0  0  0  0  0  0  0  0  0  0
  -28.2068   -2.5244   -8.2027 C   0  0  0  0  0  0  0  0  0  0  0  0
  -28.9237   -3.4932   -7.4860 C   0  0  0  0  0  0  0  0  0  0  0  0
  -29.3555   -3.2405   -6.1834 C   0  0  0  0  0  0  0  0  0  0  0  0
  -29.0766   -2.0111   -5.5941 C   0  0  0  0  0  0  0  0  0  0  0  0
  -28.3432   -1.0636   -6.3022 C   0  0  0  0  0  0  0  0  0  0  0  0
  -28.1024    0.1294   -5.7421 F   0  0  0  0  0  0  0  0  0  0  0  0
  -27.8811   -1.3153   -7.5916 C   0  0  0  0  0  0  0  0  0  0  0  0
  -16.7597    3.2018  -15.1293 O   0  0  0  0  0  0  0  0  0  0  0  0
  -16.4640    3.6041  -16.4625 C   0  0  0  0  0  0  0  0  0  0  0  0
  -15.1937    2.9478  -17.0338 C   0  0  0  0  0  0  0  0  0  0  0  0
  -14.1631    2.5740  -15.9626 C   0  0  0  0  0  0  0  0  0  0  0  0
  -13.5388    3.8045  -15.2978 C   0  0  0  0  0  0  0  0  0  0  0  0
  -12.9810    4.7585  -16.2693 N   0  0  0  0  0  0  0  0  0  0  0  0
  -12.4918    5.9511  -15.5717 C   0  0  0  0  0  0  0  0  0  0  0  0
  -13.9393    5.1432  -17.3123 C   0  0  0  0  0  0  0  0  0  0  0  0
  -14.5272    3.9185  -18.0240 C   0  0  0  0  0  0  0  0  0  0  0  0
 11 12  1  0  0  0
 12  1  1  0  0  0
  1  2  1  0  0  0
  1 10  2  0  0  0
  2  3  2  0  0  0
  3  4  1  0  0  0
  3  8  1  0  0  0
  4 13  1  0  0  0
  4  5  2  0  0  0
 13 15  1  0  0  0
 13 14  1  0  0  0
 15 16  1  0  0  0
 15 20  2  0  0  0
 16 17  2  0  0  0
 17 18  1  0  0  0
 18 21  1  0  0  0
 18 19  2  0  0  0
 21 22  1  0  0  0
 21 25  1  0  0  0
 22 23  2  0  0  0
 22 24  1  0  0  0
 24 27  1  0  0  0
 24 26  1  0  0  0
 27 28  1  0  0  0
 27 33  2  0  0  0
 28 29  2  0  0  0
 29 30  1  0  0  0
 30 31  2  0  0  0
 31 32  1  0  0  0
 31 33  1  0  0  0
 19 20  1  0  0  0
  5  6  1  0  0  0
  6  7  2  0  0  0
  7  8  1  0  0  0
  8  9  2  0  0  0
  9 10  1  0  0  0
 10 34  1  0  0  0
 34 35  1  0  0  0
 35 36  1  0  0  0
 36 37  1  0  0  0
 36 42  1  0  0  0
 37 38  1  0  0  0
 38 39  1  0  0  0
 39 40  1  0  0  0
 39 41  1  0  0  0
 41 42  1  0  0  0
M  END
> <minimizedAffinity>
-11.27672

$$$$
