CHEMBL369908


 38 42  0  0  0  0  0  0  0  0999 V2000
  -29.6231   -6.4595   -5.7105 C   0  0  0  0  0  0  0  0  0  0  0  0
  -29.4343   -7.6440   -4.9960 C   0  0  0  0  0  0  0  0  0  0  0  0
  -28.9827   -8.8068   -5.6440 C   0  0  0  0  0  0  0  0  0  0  0  0
  -28.5808   -8.7751   -6.9821 C   0  0  0  0  0  0  0  0  0  0  0  0
  -28.8128   -7.5760   -7.6761 C   0  0  0  0  0  0  0  0  0  0  0  0
  -29.3909   -6.4520   -7.0752 C   0  0  0  0  0  0  0  0  0  0  0  0
  -27.9106   -9.9441   -7.6132 C   0  0  0  0  0  0  0  0  0  0  0  0
  -28.5025  -10.6494   -8.6718 C   0  0  0  0  0  0  0  0  0  0  0  0
  -27.5375  -11.9686   -9.1890 S   0  0  0  0  0  0  0  0  0  0  0  0
  -26.3353  -11.6425   -8.0534 C   0  0  0  0  0  0  0  0  0  0  0  0
  -25.2653  -12.4531   -8.0040 N   0  0  0  0  0  0  0  0  0  0  0  0
  -24.3979  -12.1098   -7.0757 C   0  0  0  0  0  0  0  0  0  0  0  0
  -24.4963  -11.0702   -6.2402 N   0  0  0  0  0  0  0  0  0  0  0  0
  -25.5716  -10.2535   -6.3176 C   0  0  0  0  0  0  0  0  0  0  0  0
  -25.5427   -9.2213   -5.4111 N   0  0  0  0  0  0  0  0  0  0  0  0
  -26.5971  -10.5307   -7.2600 C   0  0  0  0  0  0  0  0  0  0  0  0
  -24.7291   -9.1958   -4.8122 H   0  0  0  0  0  0  0  0  0  0  0  0
  -26.1297   -8.4059   -5.4808 H   0  0  0  0  0  0  0  0  0  0  0  0
  -29.8215  -10.4781   -9.3957 C   0  0  0  0  0  0  0  0  0  0  0  0
  -31.0791  -10.5801   -8.5427 C   0  0  0  0  0  0  0  0  0  0  0  0
  -31.8641   -9.4797   -8.1728 C   0  0  0  0  0  0  0  0  0  0  0  0
  -32.8990   -9.6655   -7.2681 C   0  0  0  0  0  0  0  0  0  0  0  0
  -33.2309  -10.8623   -6.7419 N   0  0  0  0  0  0  0  0  0  0  0  0
  -32.5024  -11.9217   -7.1477 C   0  0  0  0  0  0  0  0  0  0  0  0
  -31.4354  -11.8344   -8.0294 C   0  0  0  0  0  0  0  0  0  0  0  0
  -29.7285   -2.9853   -4.7121 N   0  0  0  0  0  0  0  0  0  0  0  0
  -29.2116   -4.1049   -5.3509 C   0  0  0  0  0  0  0  0  0  0  0  0
  -28.2400   -4.1187   -6.1014 O   0  0  0  0  0  0  0  0  0  0  0  0
  -29.9691   -5.2428   -5.0748 N   0  0  0  0  0  0  0  0  0  0  0  0
  -30.3637   -3.1568   -3.9487 H   0  0  0  0  0  0  0  0  0  0  0  0
  -30.9589   -5.0422   -5.0326 H   0  0  0  0  0  0  0  0  0  0  0  0
  -30.7497    1.6091   -6.2624 C   0  0  0  0  0  0  0  0  0  0  0  0
  -29.7951    0.6154   -5.6654 C   0  0  0  0  0  0  0  0  0  0  0  0
  -28.5092    1.0243   -5.2962 C   0  0  0  0  0  0  0  0  0  0  0  0
  -27.6170    0.1121   -4.7499 C   0  0  0  0  0  0  0  0  0  0  0  0
  -28.0032   -1.2158   -4.5585 C   0  0  0  0  0  0  0  0  0  0  0  0
  -29.2885   -1.6502   -4.8968 C   0  0  0  0  0  0  0  0  0  0  0  0
  -30.1784   -0.7246   -5.4640 C   0  0  0  0  0  0  0  0  0  0  0  0
 32 33  1  0  0  0
 33 34  1  0  0  0
 33 38  2  0  0  0
 34 35  2  0  0  0
 35 36  1  0  0  0
 36 37  2  0  0  0
 37 26  1  0  0  0
 37 38  1  0  0  0
 26 27  1  0  0  0
 26 30  1  0  0  0
 27 28  2  0  0  0
 27 29  1  0  0  0
 29  1  1  0  0  0
 29 31  1  0  0  0
  1  2  1  0  0  0
  1  6  2  0  0  0
  2  3  2  0  0  0
  3  4  1  0  0  0
  4  7  1  0  0  0
  4  5  2  0  0  0
  7  8  2  0  0  0
  7 16  1  0  0  0
  8 19  1  0  0  0
  8  9  1  0  0  0
 19 20  1  0  0  0
 20 21  1  0  0  0
 20 25  2  0  0  0
 21 22  2  0  0  0
 22 23  1  0  0  0
 23 24  2  0  0  0
 24 25  1  0  0  0
  9 10  1  0  0  0
 10 11  1  0  0  0
 10 16  2  0  0  0
 11 12  2  0  0  0
 12 13  1  0  0  0
 13 14  2  0  0  0
 14 15  1  0  0  0
 14 16  1  0  0  0
 15 17  1  0  0  0
 15 18  1  0  0  0
  5  6  1  0  0  0
M  END
> <minimizedAffinity>
-9.68020

$$$$
