CHEMBL3221550


 30 32  0  0  0  0  0  0  0  0999 V2000
  -18.4485    2.2736  -15.8214 N   0  0  0  0  0  0  0  0  0  0  0  0
  -18.5235    2.7541  -16.7205 H   0  0  0  0  0  0  0  0  0  0  0  0
  -17.1269    1.9400  -15.3509 C   0  0  0  0  0  0  0  0  0  0  0  0
  -16.9371    0.9068  -14.4854 N   0  0  0  0  0  0  0  0  0  0  0  0
  -15.7138    0.5673  -14.0023 C   0  0  0  0  0  0  0  0  0  0  0  0
  -14.6249    1.2763  -14.3709 N   0  0  0  0  0  0  0  0  0  0  0  0
  -14.7250    2.3202  -15.2290 C   0  0  0  0  0  0  0  0  0  0  0  0
  -13.5709    3.0187  -15.5823 C   0  0  0  0  0  0  0  0  0  0  0  0
  -13.6216    4.0967  -16.4865 C   0  0  0  0  0  0  0  0  0  0  0  0
  -14.8737    4.4749  -17.0326 C   0  0  0  0  0  0  0  0  0  0  0  0
  -16.0269    3.7742  -16.6633 C   0  0  0  0  0  0  0  0  0  0  0  0
  -15.9815    2.6882  -15.7612 C   0  0  0  0  0  0  0  0  0  0  0  0
  -12.4924    4.7617  -16.8468 O   0  0  0  0  0  0  0  0  0  0  0  0
  -11.9235    5.8192  -16.1671 C   0  0  0  0  0  0  0  0  0  0  0  0
  -15.0459    5.4959  -17.9177 O   0  0  0  0  0  0  0  0  0  0  0  0
  -14.8487    5.4796  -19.2806 C   0  0  0  0  0  0  0  0  0  0  0  0
  -22.2280    1.4441  -13.9711 C   0  0  0  0  0  0  0  0  0  0  0  0
  -21.7219    2.7661  -13.9958 C   0  0  0  0  0  0  0  0  0  0  0  0
  -20.4966    3.0654  -14.5919 C   0  0  0  0  0  0  0  0  0  0  0  0
  -19.7218    2.0571  -15.1908 C   0  0  0  0  0  0  0  0  0  0  0  0
  -20.2254    0.7419  -15.1662 C   0  0  0  0  0  0  0  0  0  0  0  0
  -21.4514    0.4403  -14.5691 C   0  0  0  0  0  0  0  0  0  0  0  0
  -23.6076    0.1297  -12.3449 C   0  0  0  0  0  0  0  0  0  0  0  0
  -22.6425   -0.4177  -11.8406 O   0  0  0  0  0  0  0  0  0  0  0  0
  -23.4611    1.0609  -13.3322 N   0  0  0  0  0  0  0  0  0  0  0  0
  -24.3321    1.4800  -13.6967 H   0  0  0  0  0  0  0  0  0  0  0  0
  -24.8572   -0.2623  -11.9825 O   0  0  0  0  0  0  0  0  0  0  0  0
  -25.2782   -1.5828  -12.0413 C   0  0  0  0  0  0  0  0  0  0  0  0
  -27.4271   -2.0535  -13.3333 C   0  0  0  0  0  0  0  0  0  0  0  0
  -26.8099   -1.6334  -11.9921 C   0  0  0  0  0  0  0  0  0  0  0  0
 29 30  1  0  0  0
 30 28  1  0  0  0
 28 27  1  0  0  0
 27 23  1  0  0  0
 23 24  2  0  0  0
 23 25  1  0  0  0
 25 17  1  0  0  0
 25 26  1  0  0  0
 17 18  1  0  0  0
 17 22  2  0  0  0
 18 19  2  0  0  0
 19 20  1  0  0  0
 20  1  1  0  0  0
 20 21  2  0  0  0
  1  3  1  0  0  0
  1  2  1  0  0  0
  3  4  1  0  0  0
  3 12  2  0  0  0
  4  5  2  0  0  0
  5  6  1  0  0  0
  6  7  2  0  0  0
  7  8  1  0  0  0
  7 12  1  0  0  0
  8  9  2  0  0  0
  9 13  1  0  0  0
  9 10  1  0  0  0
 13 14  1  0  0  0
 10 15  1  0  0  0
 10 11  2  0  0  0
 15 16  1  0  0  0
 11 12  1  0  0  0
 21 22  1  0  0  0
M  END
> <minimizedAffinity>
-7.96071

$$$$
