CHEMBL1956885


 30 33  0  0  0  0  0  0  0  0999 V2000
  -11.6284    0.3357  -13.9786 N   0  0  0  0  0  0  0  0  0  0  0  0
  -13.0054    0.3238  -14.0962 C   0  0  0  0  0  0  0  0  0  0  0  0
  -13.6558   -0.4723  -13.2373 N   0  0  0  0  0  0  0  0  0  0  0  0
  -15.0136   -0.4929  -13.2246 C   0  0  0  0  0  0  0  0  0  0  0  0
  -15.6827    0.3283  -14.1381 C   0  0  0  0  0  0  0  0  0  0  0  0
  -17.0342    0.6497  -14.4363 C   0  0  0  0  0  0  0  0  0  0  0  0
  -17.0241    1.6640  -15.3774 C   0  0  0  0  0  0  0  0  0  0  0  0
  -15.7191    1.8172  -15.7917 N   0  0  0  0  0  0  0  0  0  0  0  0
  -14.8952    1.0680  -14.9992 C   0  0  0  0  0  0  0  0  0  0  0  0
  -13.5525    1.0945  -15.0404 N   0  0  0  0  0  0  0  0  0  0  0  0
  -11.3261   -0.4867  -13.4774 H   0  0  0  0  0  0  0  0  0  0  0  0
  -11.1932    0.5399  -14.8651 H   0  0  0  0  0  0  0  0  0  0  0  0
  -15.3824    2.4541  -16.4989 H   0  0  0  0  0  0  0  0  0  0  0  0
  -15.7044   -1.2496  -12.2707 N   0  0  0  0  0  0  0  0  0  0  0  0
  -16.5094   -0.7958  -11.8636 H   0  0  0  0  0  0  0  0  0  0  0  0
  -15.5782   -2.6167  -11.9855 C   0  0  0  0  0  0  0  0  0  0  0  0
  -16.2702   -3.5511  -12.7671 C   0  0  0  0  0  0  0  0  0  0  0  0
  -16.2104   -4.9151  -12.4687 C   0  0  0  0  0  0  0  0  0  0  0  0
  -15.4541   -5.3606  -11.3853 C   0  0  0  0  0  0  0  0  0  0  0  0
  -14.7682   -4.4369  -10.6021 C   0  0  0  0  0  0  0  0  0  0  0  0
  -13.7347   -5.0245   -9.1325 Br  0  0  0  0  0  0  0  0  0  0  0  0
  -14.8376   -3.0777  -10.8915 C   0  0  0  0  0  0  0  0  0  0  0  0
  -18.1313    2.5433  -15.8557 C   0  0  0  0  0  0  0  0  0  0  0  0
  -19.4702    2.2214  -15.2445 C   0  0  0  0  0  0  0  0  0  0  0  0
  -20.2519    3.2346  -14.6683 C   0  0  0  0  0  0  0  0  0  0  0  0
  -21.4842    2.9326  -14.0854 C   0  0  0  0  0  0  0  0  0  0  0  0
  -21.9390    1.6160  -14.0745 C   0  0  0  0  0  0  0  0  0  0  0  0
  -23.4442    1.2379  -13.3325 Cl  0  0  0  0  0  0  0  0  0  0  0  0
  -21.1801    0.6019  -14.6547 C   0  0  0  0  0  0  0  0  0  0  0  0
  -19.9479    0.9034  -15.2374 C   0  0  0  0  0  0  0  0  0  0  0  0
  1  2  1  0  0  0
  1 11  1  0  0  0
  1 12  1  0  0  0
  2  3  1  0  0  0
  2 10  2  0  0  0
  3  4  2  0  0  0
  4 14  1  0  0  0
  4  5  1  0  0  0
 14 16  1  0  0  0
 14 15  1  0  0  0
 16 17  1  0  0  0
 16 22  2  0  0  0
 17 18  2  0  0  0
 18 19  1  0  0  0
 19 20  2  0  0  0
 20 21  1  0  0  0
 20 22  1  0  0  0
  5  6  1  0  0  0
  5  9  2  0  0  0
  6  7  2  0  0  0
  7 23  1  0  0  0
  7  8  1  0  0  0
 23 24  1  0  0  0
 24 25  1  0  0  0
 24 30  2  0  0  0
 25 26  2  0  0  0
 26 27  1  0  0  0
 27 28  1  0  0  0
 27 29  2  0  0  0
 29 30  1  0  0  0
  8  9  1  0  0  0
  8 13  1  0  0  0
  9 10  1  0  0  0
M  END
> <minimizedAffinity>
-9.45785

$$$$
