CHEMBL3917294


 33 37  0  0  0  0  0  0  0  0999 V2000
  -28.9098   -5.4615   -7.2494 C   0  0  0  0  0  0  0  0  0  0  0  0
  -28.5827   -4.4131   -8.1063 C   0  0  0  0  0  0  0  0  0  0  0  0
  -28.3007   -3.1220   -7.6131 C   0  0  0  0  0  0  0  0  0  0  0  0
  -28.0632   -2.0116   -8.4393 C   0  0  0  0  0  0  0  0  0  0  0  0
  -27.7295   -0.8135   -7.9339 N   0  0  0  0  0  0  0  0  0  0  0  0
  -27.6833   -0.7186   -6.6031 C   0  0  0  0  0  0  0  0  0  0  0  0
  -27.9426   -1.7000   -5.7235 N   0  0  0  0  0  0  0  0  0  0  0  0
  -28.2506   -2.9007   -6.2339 C   0  0  0  0  0  0  0  0  0  0  0  0
  -28.4941   -3.9729   -5.3888 C   0  0  0  0  0  0  0  0  0  0  0  0
  -28.7979   -5.2601   -5.8688 C   0  0  0  0  0  0  0  0  0  0  0  0
  -30.7009   -7.0451   -7.4720 C   0  0  0  0  0  0  0  0  0  0  0  0
  -29.3493   -6.6670   -7.7208 O   0  0  0  0  0  0  0  0  0  0  0  0
  -28.2084   -2.1515   -9.8556 N   0  0  0  0  0  0  0  0  0  0  0  0
  -29.1150   -1.7845  -10.1287 H   0  0  0  0  0  0  0  0  0  0  0  0
  -27.1920   -1.8775  -10.7898 C   0  0  0  0  0  0  0  0  0  0  0  0
  -25.8920   -1.5992  -10.3573 C   0  0  0  0  0  0  0  0  0  0  0  0
  -24.8915   -1.2676  -11.2675 C   0  0  0  0  0  0  0  0  0  0  0  0
  -25.1664   -1.2252  -12.6304 C   0  0  0  0  0  0  0  0  0  0  0  0
  -23.8915   -0.7511  -13.6960 Cl  0  0  0  0  0  0  0  0  0  0  0  0
  -26.4498   -1.5475  -13.0839 C   0  0  0  0  0  0  0  0  0  0  0  0
  -26.8651   -1.5276  -14.7621 Cl  0  0  0  0  0  0  0  0  0  0  0  0
  -27.4553   -1.8883  -12.1669 C   0  0  0  0  0  0  0  0  0  0  0  0
  -28.9650   -6.1940   -4.8702 O   0  0  0  0  0  0  0  0  0  0  0  0
  -27.8980   -7.1387   -4.7092 C   0  0  0  0  0  0  0  0  0  0  0  0
  -28.4051   -8.5873   -4.8274 C   0  0  0  0  0  0  0  0  0  0  0  0
  -27.9292   -9.3482   -6.0989 C   0  0  0  0  0  0  0  0  0  0  0  0
  -26.5689   -9.8959   -5.9701 N   0  0  0  0  0  0  0  0  0  0  0  0
  -26.1974  -10.8045   -7.0472 C   0  0  0  0  0  0  0  0  0  0  0  0
  -24.7523  -11.7266   -6.4371 S   0  0  0  0  0  0  0  0  0  0  0  0
  -25.0655  -11.2974   -4.6987 C   0  0  0  0  0  0  0  0  0  0  0  0
  -26.4575  -10.6744   -4.7181 C   0  0  0  0  0  0  0  0  0  0  0  0
  -26.7275   -9.7286   -3.5475 C   0  0  0  0  0  0  0  0  0  0  0  0
  -28.0993   -9.3095   -3.6060 O   0  0  0  0  0  0  0  0  0  0  0  0
 11 12  1  0  0  0
 12  1  1  0  0  0
  1  2  1  0  0  0
  1 10  2  0  0  0
  2  3  2  0  0  0
  3  4  1  0  0  0
  3  8  1  0  0  0
  4 13  1  0  0  0
  4  5  2  0  0  0
 13 15  1  0  0  0
 13 14  1  0  0  0
 15 16  1  0  0  0
 15 22  2  0  0  0
 16 17  2  0  0  0
 17 18  1  0  0  0
 18 19  1  0  0  0
 18 20  2  0  0  0
 20 21  1  0  0  0
 20 22  1  0  0  0
  5  6  1  0  0  0
  6  7  2  0  0  0
  7  8  1  0  0  0
  8  9  2  0  0  0
  9 10  1  0  0  0
 10 23  1  0  0  0
 23 24  1  0  0  0
 24 25  1  0  0  0
 25 26  1  0  0  0
 25 33  1  0  0  0
 26 27  1  0  0  0
 27 28  1  0  0  0
 27 31  1  0  0  0
 28 29  1  0  0  0
 29 30  1  0  0  0
 30 31  1  0  0  0
 31 32  1  0  0  0
 32 33  1  0  0  0
M  END
> <minimizedAffinity>
-8.72124

$$$$
