CHEMBL4248225


 36 40  0  0  0  0  0  0  0  0999 V2000
  -15.1667   -0.5828  -13.7138 C   0  0  0  0  0  0  0  0  0  0  0  0
  -13.8830   -0.2303  -13.6949 N   0  0  0  0  0  0  0  0  0  0  0  0
  -13.5587    0.8931  -14.3774 C   0  0  0  0  0  0  0  0  0  0  0  0
  -11.8442    1.1265  -14.3125 Cl  0  0  0  0  0  0  0  0  0  0  0  0
  -14.4251    1.7061  -15.1042 C   0  0  0  0  0  0  0  0  0  0  0  0
  -15.7096    1.1755  -15.0967 C   0  0  0  0  0  0  0  0  0  0  0  0
  -16.0975    0.0988  -14.3758 N   0  0  0  0  0  0  0  0  0  0  0  0
  -16.8405   -5.3507  -11.1770 O   0  0  0  0  0  0  0  0  0  0  0  0
  -16.4171   -4.1938  -11.7574 C   0  0  0  0  0  0  0  0  0  0  0  0
  -16.0324   -3.0975  -10.9945 C   0  0  0  0  0  0  0  0  0  0  0  0
  -15.6162   -1.9233  -11.6343 C   0  0  0  0  0  0  0  0  0  0  0  0
  -15.5863   -1.8227  -13.0374 C   0  0  0  0  0  0  0  0  0  0  0  0
  -15.9693   -2.9634  -13.7752 C   0  0  0  0  0  0  0  0  0  0  0  0
  -16.3818   -4.1391  -13.1412 C   0  0  0  0  0  0  0  0  0  0  0  0
  -16.8586   -5.2256  -10.2145 H   0  0  0  0  0  0  0  0  0  0  0  0
  -14.0521    2.9771  -15.7843 C   0  0  0  0  0  0  0  0  0  0  0  0
  -13.5514    4.0889  -15.0787 C   0  0  0  0  0  0  0  0  0  0  0  0
  -13.1223    5.2502  -15.7339 C   0  0  0  0  0  0  0  0  0  0  0  0
  -13.2306    5.3552  -17.1146 C   0  0  0  0  0  0  0  0  0  0  0  0
  -13.7518    4.2927  -17.8404 C   0  0  0  0  0  0  0  0  0  0  0  0
  -14.1300    3.1143  -17.1854 C   0  0  0  0  0  0  0  0  0  0  0  0
  -16.6983    1.7381  -15.8989 O   0  0  0  0  0  0  0  0  0  0  0  0
  -17.9789    1.7499  -15.3715 C   0  0  0  0  0  0  0  0  0  0  0  0
  -18.7230    0.5750  -15.4839 C   0  0  0  0  0  0  0  0  0  0  0  0
  -20.0607    0.5530  -15.0648 C   0  0  0  0  0  0  0  0  0  0  0  0
  -20.6433    1.6972  -14.5157 C   0  0  0  0  0  0  0  0  0  0  0  0
  -19.8799    2.8538  -14.3586 C   0  0  0  0  0  0  0  0  0  0  0  0
  -18.5422    2.8689  -14.7459 C   0  0  0  0  0  0  0  0  0  0  0  0
  -21.9464    1.8173  -14.1190 O   0  0  0  0  0  0  0  0  0  0  0  0
  -22.4487    0.7371  -13.3324 C   0  0  0  0  0  0  0  0  0  0  0  0
  -23.4959   -0.0137  -14.1706 C   0  0  0  0  0  0  0  0  0  0  0  0
  -23.7961   -1.3622  -13.6560 N   0  0  0  0  0  0  0  0  0  0  0  0
  -25.2475   -1.6096  -13.6312 C   0  0  0  0  0  0  0  0  0  0  0  0
  -25.7113   -1.0888  -12.2844 C   0  0  0  0  0  0  0  0  0  0  0  0
  -24.5693   -1.4594  -11.3612 C   0  0  0  0  0  0  0  0  0  0  0  0
  -23.3473   -1.5570  -12.2648 C   0  0  0  0  0  0  0  0  0  0  0  0
  8  9  1  0  0  0
  8 15  1  0  0  0
  9 10  1  0  0  0
  9 14  2  0  0  0
 10 11  2  0  0  0
 11 12  1  0  0  0
 12  1  1  0  0  0
 12 13  2  0  0  0
  1  2  1  0  0  0
  1  7  2  0  0  0
  2  3  2  0  0  0
  3  4  1  0  0  0
  3  5  1  0  0  0
  5 16  1  0  0  0
  5  6  2  0  0  0
 16 17  1  0  0  0
 16 21  2  0  0  0
 17 18  2  0  0  0
 18 19  1  0  0  0
 19 20  2  0  0  0
 20 21  1  0  0  0
  6 22  1  0  0  0
  6  7  1  0  0  0
 22 23  1  0  0  0
 23 24  1  0  0  0
 23 28  2  0  0  0
 24 25  2  0  0  0
 25 26  1  0  0  0
 26 29  1  0  0  0
 26 27  2  0  0  0
 29 30  1  0  0  0
 30 31  1  0  0  0
 31 32  1  0  0  0
 32 33  1  0  0  0
 32 36  1  0  0  0
 33 34  1  0  0  0
 34 35  1  0  0  0
 35 36  1  0  0  0
 27 28  1  0  0  0
 13 14  1  0  0  0
M  END
> <minimizedAffinity>
-9.87113

$$$$
