CHEMBL4237916


 22 24  0  0  0  0  0  0  0  0999 V2000
  -14.7807   -5.8555  -11.6386 N   0  0  0  0  0  0  0  0  0  0  0  0
  -13.9686   -5.1772  -10.6924 C   0  0  0  0  0  0  0  0  0  0  0  0
  -14.2298   -5.3895   -9.3656 N   0  0  0  0  0  0  0  0  0  0  0  0
  -13.4420   -4.8555   -8.4208 C   0  0  0  0  0  0  0  0  0  0  0  0
  -12.3583   -4.1087   -8.6000 N   0  0  0  0  0  0  0  0  0  0  0  0
  -12.1439   -3.8615   -9.8943 C   0  0  0  0  0  0  0  0  0  0  0  0
  -11.0953   -3.0961  -10.2978 O   0  0  0  0  0  0  0  0  0  0  0  0
  -11.1844   -2.9710  -11.6377 C   0  0  0  0  0  0  0  0  0  0  0  0
  -12.3024   -3.6161  -12.1264 C   0  0  0  0  0  0  0  0  0  0  0  0
  -12.7289   -3.5392  -13.5458 C   0  0  0  0  0  0  0  0  0  0  0  0
  -12.8951   -4.2926  -10.9902 C   0  0  0  0  0  0  0  0  0  0  0  0
  -14.3619   -6.8716  -12.5186 C   0  0  0  0  0  0  0  0  0  0  0  0
  -14.5873   -6.8011  -13.9010 C   0  0  0  0  0  0  0  0  0  0  0  0
  -14.0569   -7.7520  -14.7809 C   0  0  0  0  0  0  0  0  0  0  0  0
  -13.2905   -8.8076  -14.2956 C   0  0  0  0  0  0  0  0  0  0  0  0
  -13.1098   -8.9336  -12.9204 C   0  0  0  0  0  0  0  0  0  0  0  0
  -13.6522   -7.9869  -12.0432 C   0  0  0  0  0  0  0  0  0  0  0  0
  -12.6581   -9.7536  -15.0523 O   0  0  0  0  0  0  0  0  0  0  0  0
  -13.0123   -9.8046  -16.4289 C   0  0  0  0  0  0  0  0  0  0  0  0
  -16.1776   -5.3728  -11.7148 C   0  0  0  0  0  0  0  0  0  0  0  0
  -16.2840   -3.5174  -13.4832 C   0  0  0  0  0  0  0  0  0  0  0  0
  -16.3151   -3.8691  -12.0042 C   0  0  0  0  0  0  0  0  0  0  0  0
 21 22  1  0  0  0
 22 20  1  0  0  0
 20  1  1  0  0  0
  1 12  1  0  0  0
  1  2  1  0  0  0
 12 13  1  0  0  0
 12 17  2  0  0  0
 13 14  2  0  0  0
 14 15  1  0  0  0
 15 18  1  0  0  0
 15 16  2  0  0  0
 18 19  1  0  0  0
 16 17  1  0  0  0
  2  3  1  0  0  0
  2 11  2  0  0  0
  3  4  2  0  0  0
  4  5  1  0  0  0
  5  6  2  0  0  0
  6  7  1  0  0  0
  6 11  1  0  0  0
  7  8  1  0  0  0
  8  9  2  0  0  0
  9 10  1  0  0  0
  9 11  1  0  0  0
M  END
> <minimizedAffinity>
-6.03516

$$$$
