CHEMBL508776


 40 45  0  0  0  0  0  0  0  0999 V2000
  -14.5637    2.7329  -16.5929 C   0  0  0  0  0  0  0  0  0  0  0  0
  -14.9293    1.4615  -16.1552 C   0  0  0  0  0  0  0  0  0  0  0  0
  -16.2552    1.1960  -15.8366 C   0  0  0  0  0  0  0  0  0  0  0  0
  -17.2387    2.1750  -16.0183 C   0  0  0  0  0  0  0  0  0  0  0  0
  -16.8989    3.3917  -16.6115 C   0  0  0  0  0  0  0  0  0  0  0  0
  -15.5594    3.6698  -16.8754 C   0  0  0  0  0  0  0  0  0  0  0  0
  -15.2342    4.8722  -17.3744 F   0  0  0  0  0  0  0  0  0  0  0  0
  -18.5658    1.9610  -15.6184 N   0  0  0  0  0  0  0  0  0  0  0  0
  -19.3799    2.8920  -15.0055 C   0  0  0  0  0  0  0  0  0  0  0  0
  -19.0763    4.0620  -14.7754 O   0  0  0  0  0  0  0  0  0  0  0  0
  -20.6296    2.4140  -14.6704 N   0  0  0  0  0  0  0  0  0  0  0  0
  -21.6284    3.2951  -14.1133 C   0  0  0  0  0  0  0  0  0  0  0  0
  -22.8511    2.4102  -14.0060 C   0  0  0  0  0  0  0  0  0  0  0  0
  -22.2842    1.0920  -13.8452 N   0  0  0  0  0  0  0  0  0  0  0  0
  -20.9799    1.0740  -14.3865 C   0  0  0  0  0  0  0  0  0  0  0  0
  -20.2811    0.1047  -14.6548 O   0  0  0  0  0  0  0  0  0  0  0  0
  -19.0216    1.1013  -15.9135 H   0  0  0  0  0  0  0  0  0  0  0  0
  -23.0038   -0.0315  -13.3901 C   0  0  0  0  0  0  0  0  0  0  0  0
  -22.7163   -0.6103  -12.1477 C   0  0  0  0  0  0  0  0  0  0  0  0
  -23.4157   -1.7318  -11.6982 C   0  0  0  0  0  0  0  0  0  0  0  0
  -24.4128   -2.2920  -12.4889 C   0  0  0  0  0  0  0  0  0  0  0  0
  -24.7264   -1.7157  -13.7170 C   0  0  0  0  0  0  0  0  0  0  0  0
  -24.0357   -0.5837  -14.1595 C   0  0  0  0  0  0  0  0  0  0  0  0
  -13.2560    3.1242  -16.7586 O   0  0  0  0  0  0  0  0  0  0  0  0
  -11.5663    7.4166  -16.3150 C   0  0  0  0  0  0  0  0  0  0  0  0
  -11.1539    7.0007  -15.0579 C   0  0  0  0  0  0  0  0  0  0  0  0
  -11.5041    5.6534  -14.7563 C   0  0  0  0  0  0  0  0  0  0  0  0
  -11.2222    5.0134  -13.5885 N   0  0  0  0  0  0  0  0  0  0  0  0
  -11.6849    3.7541  -13.4884 C   0  0  0  0  0  0  0  0  0  0  0  0
  -12.3944    3.0864  -14.4677 C   0  0  0  0  0  0  0  0  0  0  0  0
  -12.6120    3.7205  -15.6927 C   0  0  0  0  0  0  0  0  0  0  0  0
  -12.1798    5.0478  -15.8097 C   0  0  0  0  0  0  0  0  0  0  0  0
  -12.3426    6.1178  -17.1348 S   0  0  0  0  0  0  0  0  0  0  0  0
  -12.5045   11.9232  -18.9279 C   0  0  0  0  0  0  0  0  0  0  0  0
  -11.3683   11.3793  -18.2042 N   0  0  0  0  0  0  0  0  0  0  0  0
  -11.6136   11.1962  -16.7816 C   0  0  0  0  0  0  0  0  0  0  0  0
  -11.7317    9.7941  -16.2747 C   0  0  0  0  0  0  0  0  0  0  0  0
  -11.4200    8.6884  -16.9732 C   0  0  0  0  0  0  0  0  0  0  0  0
  -10.9310    8.8460  -18.3959 C   0  0  0  0  0  0  0  0  0  0  0  0
  -10.6971   10.2803  -18.8911 C   0  0  0  0  0  0  0  0  0  0  0  0
 34 35  1  0  0  0
 35 36  1  0  0  0
 35 40  1  0  0  0
 36 37  1  0  0  0
 37 38  2  0  0  0
 38 25  1  0  0  0
 38 39  1  0  0  0
 25 26  2  0  0  0
 25 33  1  0  0  0
 26 27  1  0  0  0
 27 28  1  0  0  0
 27 32  2  0  0  0
 28 29  2  0  0  0
 29 30  1  0  0  0
 30 31  2  0  0  0
 31 24  1  0  0  0
 31 32  1  0  0  0
 24  1  1  0  0  0
  1  2  1  0  0  0
  1  6  2  0  0  0
  2  3  2  0  0  0
  3  4  1  0  0  0
  4  8  1  0  0  0
  4  5  2  0  0  0
  8  9  1  0  0  0
  8 17  1  0  0  0
  9 10  2  0  0  0
  9 11  1  0  0  0
 11 12  1  0  0  0
 11 15  1  0  0  0
 12 13  1  0  0  0
 13 14  1  0  0  0
 14 18  1  0  0  0
 14 15  1  0  0  0
 18 19  1  0  0  0
 18 23  2  0  0  0
 19 20  2  0  0  0
 20 21  1  0  0  0
 21 22  2  0  0  0
 22 23  1  0  0  0
 15 16  2  0  0  0
  5  6  1  0  0  0
  6  7  1  0  0  0
 32 33  1  0  0  0
 39 40  1  0  0  0
M  END
> <minimizedAffinity>
-9.36574

$$$$
