CHEMBL3397942


 33 36  0  0  0  0  0  0  0  0999 V2000
  -13.4291    0.4970  -15.4363 O   0  0  0  0  0  0  0  0  0  0  0  0
  -14.5814    0.2878  -15.0767 C   0  0  0  0  0  0  0  0  0  0  0  0
  -15.0553   -0.8578  -14.4519 N   0  0  0  0  0  0  0  0  0  0  0  0
  -16.0587   -0.9911  -14.4208 H   0  0  0  0  0  0  0  0  0  0  0  0
  -14.2549   -1.9589  -14.0817 C   0  0  0  0  0  0  0  0  0  0  0  0
  -13.6759   -2.8232  -15.0073 C   0  0  0  0  0  0  0  0  0  0  0  0
  -12.9720   -3.9545  -14.5878 C   0  0  0  0  0  0  0  0  0  0  0  0
  -12.8311   -4.2491  -13.2393 C   0  0  0  0  0  0  0  0  0  0  0  0
  -13.3400   -3.3398  -12.2943 C   0  0  0  0  0  0  0  0  0  0  0  0
  -13.1374   -3.4661  -10.5808 Cl  0  0  0  0  0  0  0  0  0  0  0  0
  -14.0488   -2.2030  -12.7205 C   0  0  0  0  0  0  0  0  0  0  0  0
  -12.1702   -5.4358  -13.0403 O   0  0  0  0  0  0  0  0  0  0  0  0
  -12.8691   -6.4149  -12.2824 C   0  0  0  0  0  0  0  0  0  0  0  0
  -13.8267   -7.2405  -13.1497 C   0  0  0  0  0  0  0  0  0  0  0  0
  -15.1708   -6.7547  -12.8930 N   0  0  0  0  0  0  0  0  0  0  0  0
  -15.9201   -6.1933  -14.0035 C   0  0  0  0  0  0  0  0  0  0  0  0
  -16.5919   -4.9593  -13.4362 C   0  0  0  0  0  0  0  0  0  0  0  0
  -16.6939   -5.2476  -11.9495 C   0  0  0  0  0  0  0  0  0  0  0  0
  -15.4607   -6.0854  -11.6443 C   0  0  0  0  0  0  0  0  0  0  0  0
  -15.5904    1.3245  -15.3922 C   0  0  0  0  0  0  0  0  0  0  0  0
  -15.1468    2.4987  -16.0071 C   0  0  0  0  0  0  0  0  0  0  0  0
  -16.0453    3.5252  -16.2632 C   0  0  0  0  0  0  0  0  0  0  0  0
  -17.3895    3.3735  -15.9119 C   0  0  0  0  0  0  0  0  0  0  0  0
  -17.8740    2.1886  -15.3235 C   0  0  0  0  0  0  0  0  0  0  0  0
  -16.9383    1.1745  -15.0486 C   0  0  0  0  0  0  0  0  0  0  0  0
  -19.3190    1.9781  -15.0662 C   0  0  0  0  0  0  0  0  0  0  0  0
  -19.8684    0.6815  -15.0565 C   0  0  0  0  0  0  0  0  0  0  0  0
  -21.1980    0.4501  -14.6913 C   0  0  0  0  0  0  0  0  0  0  0  0
  -22.0101    1.5118  -14.3082 C   0  0  0  0  0  0  0  0  0  0  0  0
  -21.4916    2.7991  -14.3287 C   0  0  0  0  0  0  0  0  0  0  0  0
  -22.2354    3.8693  -13.9261 O   0  0  0  0  0  0  0  0  0  0  0  0
  -20.1787    3.0395  -14.7293 C   0  0  0  0  0  0  0  0  0  0  0  0
  -23.0589    3.5403  -13.5292 H   0  0  0  0  0  0  0  0  0  0  0  0
  1  2  2  0  0  0
  2  3  1  0  0  0
  2 20  1  0  0  0
  3  5  1  0  0  0
  3  4  1  0  0  0
  5  6  1  0  0  0
  5 11  2  0  0  0
  6  7  2  0  0  0
  7  8  1  0  0  0
  8 12  1  0  0  0
  8  9  2  0  0  0
 12 13  1  0  0  0
 13 14  1  0  0  0
 14 15  1  0  0  0
 15 16  1  0  0  0
 15 19  1  0  0  0
 16 17  1  0  0  0
 17 18  1  0  0  0
 18 19  1  0  0  0
  9 10  1  0  0  0
  9 11  1  0  0  0
 20 21  1  0  0  0
 20 25  2  0  0  0
 21 22  2  0  0  0
 22 23  1  0  0  0
 23 24  2  0  0  0
 24 26  1  0  0  0
 24 25  1  0  0  0
 26 27  1  0  0  0
 26 32  2  0  0  0
 27 28  2  0  0  0
 28 29  1  0  0  0
 29 30  2  0  0  0
 30 31  1  0  0  0
 30 32  1  0  0  0
 31 33  1  0  0  0
M  END
> <minimizedAffinity>
-9.28906

$$$$
