CHEMBL210070


 43 48  0  0  0  0  0  0  0  0999 V2000
  -28.2709   -8.8268   -5.6551 C   0  0  0  0  0  0  0  0  0  0  0  0
  -27.4282   -8.2946   -4.6933 C   0  0  0  0  0  0  0  0  0  0  0  0
  -27.7708   -6.9515   -4.4378 C   0  0  0  0  0  0  0  0  0  0  0  0
  -28.9101   -6.5056   -5.1008 C   0  0  0  0  0  0  0  0  0  0  0  0
  -29.2323   -7.5809   -6.3905 S   0  0  0  0  0  0  0  0  0  0  0  0
  -29.6652   -5.3170   -4.7580 C   0  0  0  0  0  0  0  0  0  0  0  0
  -30.8671   -4.8776   -5.2787 N   0  0  0  0  0  0  0  0  0  0  0  0
  -31.0498   -3.5137   -5.1903 N   0  0  0  0  0  0  0  0  0  0  0  0
  -30.0110   -3.1082   -4.4468 C   0  0  0  0  0  0  0  0  0  0  0  0
  -29.2208   -4.2255   -4.0447 C   0  0  0  0  0  0  0  0  0  0  0  0
  -27.8588   -3.7751   -3.6664 C   0  0  0  0  0  0  0  0  0  0  0  0
  -27.8637   -2.7102   -4.7719 C   0  0  0  0  0  0  0  0  0  0  0  0
  -27.5060   -2.9289   -6.1209 C   0  0  0  0  0  0  0  0  0  0  0  0
  -27.9899   -2.0354   -7.0961 C   0  0  0  0  0  0  0  0  0  0  0  0
  -28.5579   -0.8395   -6.6526 C   0  0  0  0  0  0  0  0  0  0  0  0
  -29.1887   -0.8409   -5.4161 C   0  0  0  0  0  0  0  0  0  0  0  0
  -29.0472   -1.9545   -4.6138 C   0  0  0  0  0  0  0  0  0  0  0  0
  -31.5013   -5.3969   -5.8704 H   0  0  0  0  0  0  0  0  0  0  0  0
  -28.2336   -2.4091   -8.5496 C   0  0  0  0  0  0  0  0  0  0  0  0
  -27.4920   -1.6001   -9.5103 N   0  0  0  0  0  0  0  0  0  0  0  0
  -26.3699   -2.3633  -10.0770 C   0  0  0  0  0  0  0  0  0  0  0  0
  -25.5801   -1.5265  -11.1049 C   0  0  0  0  0  0  0  0  0  0  0  0
  -26.3843   -0.9433  -12.1987 N   0  0  0  0  0  0  0  0  0  0  0  0
  -26.7543   -1.9435  -13.1949 C   0  0  0  0  0  0  0  0  0  0  0  0
  -27.5739   -0.2773  -11.6283 C   0  0  0  0  0  0  0  0  0  0  0  0
  -28.3652   -1.1290  -10.6060 C   0  0  0  0  0  0  0  0  0  0  0  0
  -28.3764  -10.2677   -6.0529 C   0  0  0  0  0  0  0  0  0  0  0  0
  -25.5723  -11.1215   -6.0508 N   0  0  0  0  0  0  0  0  0  0  0  0
  -26.1581  -10.7388   -7.2449 C   0  0  0  0  0  0  0  0  0  0  0  0
  -25.5156  -10.5972   -8.2910 O   0  0  0  0  0  0  0  0  0  0  0  0
  -27.5330  -10.5188   -7.2323 N   0  0  0  0  0  0  0  0  0  0  0  0
  -26.1734  -11.2340   -5.2599 H   0  0  0  0  0  0  0  0  0  0  0  0
  -21.7841  -11.3216   -2.8716 C   0  0  0  0  0  0  0  0  0  0  0  0
  -22.3449  -11.5856   -4.2392 C   0  0  0  0  0  0  0  0  0  0  0  0
  -21.5286  -12.1261   -5.2350 C   0  0  0  0  0  0  0  0  0  0  0  0
  -22.0324  -12.3341   -6.5111 C   0  0  0  0  0  0  0  0  0  0  0  0
  -23.3606  -11.9904   -6.8049 C   0  0  0  0  0  0  0  0  0  0  0  0
  -24.2043  -11.4568   -5.8298 C   0  0  0  0  0  0  0  0  0  0  0  0
  -23.6761  -11.2481   -4.5512 C   0  0  0  0  0  0  0  0  0  0  0  0
  -28.1544  -10.1951   -8.5283 C   0  0  0  0  0  0  0  0  0  0  0  0
  -28.8769  -11.3611   -9.2522 C   0  0  0  0  0  0  0  0  0  0  0  0
  -30.3886  -11.3870   -9.0483 C   0  0  0  0  0  0  0  0  0  0  0  0
  -28.5893  -11.2627  -10.7539 C   0  0  0  0  0  0  0  0  0  0  0  0
 33 34  1  0  0  0
 34 35  1  0  0  0
 34 39  2  0  0  0
 35 36  2  0  0  0
 36 37  1  0  0  0
 37 38  2  0  0  0
 38 28  1  0  0  0
 38 39  1  0  0  0
 28 29  1  0  0  0
 28 32  1  0  0  0
 29 30  2  0  0  0
 29 31  1  0  0  0
 31 27  1  0  0  0
 31 40  1  0  0  0
 27  1  1  0  0  0
  1  2  2  0  0  0
  1  5  1  0  0  0
  2  3  1  0  0  0
  3  4  2  0  0  0
  4  6  1  0  0  0
  4  5  1  0  0  0
  6  7  1  0  0  0
  6 10  2  0  0  0
  7  8  1  0  0  0
  7 18  1  0  0  0
  8  9  2  0  0  0
  9 10  1  0  0  0
  9 17  1  0  0  0
 10 11  1  0  0  0
 11 12  1  0  0  0
 12 13  1  0  0  0
 12 17  2  0  0  0
 13 14  2  0  0  0
 14 19  1  0  0  0
 14 15  1  0  0  0
 19 20  1  0  0  0
 20 21  1  0  0  0
 20 26  1  0  0  0
 21 22  1  0  0  0
 22 23  1  0  0  0
 23 24  1  0  0  0
 23 25  1  0  0  0
 25 26  1  0  0  0
 15 16  2  0  0  0
 16 17  1  0  0  0
 40 41  1  0  0  0
 41 42  1  0  0  0
 41 43  1  0  0  0
M  END
> <minimizedAffinity>
-8.08714

$$$$
