CHEMBL396284


 39 42  0  0  0  0  0  0  0  0999 V2000
  -28.9023   -2.5960   -6.4673 C   0  0  0  0  0  0  0  0  0  0  0  0
  -29.2647   -3.5255   -7.4353 C   0  0  0  0  0  0  0  0  0  0  0  0
  -28.8195   -3.3765   -8.7519 C   0  0  0  0  0  0  0  0  0  0  0  0
  -28.0073   -2.2990   -9.1233 C   0  0  0  0  0  0  0  0  0  0  0  0
  -27.6994   -1.3350   -8.1583 C   0  0  0  0  0  0  0  0  0  0  0  0
  -28.1675   -1.4687   -6.8446 C   0  0  0  0  0  0  0  0  0  0  0  0
  -27.4568   -2.1427  -10.4174 N   0  0  0  0  0  0  0  0  0  0  0  0
  -26.2187   -1.6117  -10.7116 C   0  0  0  0  0  0  0  0  0  0  0  0
  -25.3733   -1.2974   -9.8791 O   0  0  0  0  0  0  0  0  0  0  0  0
  -26.0308   -1.4386  -12.0760 N   0  0  0  0  0  0  0  0  0  0  0  0
  -27.9765   -2.5299  -11.1925 H   0  0  0  0  0  0  0  0  0  0  0  0
  -26.8511   -1.1104  -12.5717 H   0  0  0  0  0  0  0  0  0  0  0  0
  -24.8003   -0.9084  -12.5490 C   0  0  0  0  0  0  0  0  0  0  0  0
  -24.6291    0.4643  -12.7743 C   0  0  0  0  0  0  0  0  0  0  0  0
  -23.4326    0.9646  -13.2987 C   0  0  0  0  0  0  0  0  0  0  0  0
  -23.3291    2.3154  -13.6478 N   0  0  0  0  0  0  0  0  0  0  0  0
  -22.4440    0.0582  -13.6936 C   0  0  0  0  0  0  0  0  0  0  0  0
  -22.5934   -1.3108  -13.4527 C   0  0  0  0  0  0  0  0  0  0  0  0
  -23.7573   -1.7804  -12.8545 C   0  0  0  0  0  0  0  0  0  0  0  0
  -23.9106   -3.0991  -12.6580 F   0  0  0  0  0  0  0  0  0  0  0  0
  -23.9321    2.9308  -13.1108 H   0  0  0  0  0  0  0  0  0  0  0  0
  -22.3791    2.6628  -13.7207 H   0  0  0  0  0  0  0  0  0  0  0  0
  -29.3338   -2.8568   -5.1861 O   0  0  0  0  0  0  0  0  0  0  0  0
  -27.9315   -8.4071   -4.0906 C   0  0  0  0  0  0  0  0  0  0  0  0
  -29.2008   -8.1926   -3.8506 N   0  0  0  0  0  0  0  0  0  0  0  0
  -29.4130   -6.8586   -4.0574 C   0  0  0  0  0  0  0  0  0  0  0  0
  -30.5909   -6.1135   -3.9224 C   0  0  0  0  0  0  0  0  0  0  0  0
  -30.5586   -4.7526   -4.2415 C   0  0  0  0  0  0  0  0  0  0  0  0
  -29.3931   -4.1665   -4.7537 C   0  0  0  0  0  0  0  0  0  0  0  0
  -28.1877   -4.8820   -4.8219 C   0  0  0  0  0  0  0  0  0  0  0  0
  -28.2424   -6.2306   -4.4622 C   0  0  0  0  0  0  0  0  0  0  0  0
  -27.2980   -7.2270   -4.4131 N   0  0  0  0  0  0  0  0  0  0  0  0
  -26.3221   -7.1240   -4.6377 H   0  0  0  0  0  0  0  0  0  0  0  0
  -25.9238   -9.6477   -3.7716 C   0  0  0  0  0  0  0  0  0  0  0  0
  -25.1673   -8.7390   -3.4614 O   0  0  0  0  0  0  0  0  0  0  0  0
  -27.2608   -9.5953   -4.0471 N   0  0  0  0  0  0  0  0  0  0  0  0
  -27.7332  -10.4757   -4.1503 H   0  0  0  0  0  0  0  0  0  0  0  0
  -24.6531  -11.3354   -2.7648 C   0  0  0  0  0  0  0  0  0  0  0  0
  -25.5298  -10.9545   -3.8286 O   0  0  0  0  0  0  0  0  0  0  0  0
 38 39  1  0  0  0
 39 34  1  0  0  0
 34 35  2  0  0  0
 34 36  1  0  0  0
 36 24  1  0  0  0
 36 37  1  0  0  0
 24 25  2  0  0  0
 24 32  1  0  0  0
 25 26  1  0  0  0
 26 27  1  0  0  0
 26 31  2  0  0  0
 27 28  2  0  0  0
 28 29  1  0  0  0
 29 23  1  0  0  0
 29 30  2  0  0  0
 23  1  1  0  0  0
  1  2  1  0  0  0
  1  6  2  0  0  0
  2  3  2  0  0  0
  3  4  1  0  0  0
  4  7  1  0  0  0
  4  5  2  0  0  0
  7  8  1  0  0  0
  7 11  1  0  0  0
  8  9  2  0  0  0
  8 10  1  0  0  0
 10 13  1  0  0  0
 10 12  1  0  0  0
 13 14  1  0  0  0
 13 19  2  0  0  0
 14 15  2  0  0  0
 15 16  1  0  0  0
 15 17  1  0  0  0
 16 21  1  0  0  0
 16 22  1  0  0  0
 17 18  2  0  0  0
 18 19  1  0  0  0
 19 20  1  0  0  0
  5  6  1  0  0  0
 30 31  1  0  0  0
 31 32  1  0  0  0
 32 33  1  0  0  0
M  END
> <minimizedAffinity>
-9.82000

$$$$
