CHEMBL1966411


 25 27  0  0  0  0  0  0  0  0999 V2000
  -29.9127   -5.8220   -5.2350 C   0  0  0  0  0  0  0  0  0  0  0  0
  -30.4641   -5.0234   -4.2220 C   0  0  0  0  0  0  0  0  0  0  0  0
  -30.2910   -3.6358   -4.2288 C   0  0  0  0  0  0  0  0  0  0  0  0
  -29.5720   -3.0624   -5.2670 C   0  0  0  0  0  0  0  0  0  0  0  0
  -29.0391   -3.8652   -6.2971 C   0  0  0  0  0  0  0  0  0  0  0  0
  -29.2073   -5.2449   -6.3007 C   0  0  0  0  0  0  0  0  0  0  0  0
  -28.3337   -2.9409   -7.2357 C   0  0  0  0  0  0  0  0  0  0  0  0
  -27.6734   -3.1545   -8.3274 N   0  0  0  0  0  0  0  0  0  0  0  0
  -27.6253   -4.4999   -8.6816 O   0  0  0  0  0  0  0  0  0  0  0  0
  -28.4964   -1.5727   -6.6833 C   0  0  0  0  0  0  0  0  0  0  0  0
  -28.0265   -0.3632   -7.1691 C   0  0  0  0  0  0  0  0  0  0  0  0
  -28.3217    0.7856   -6.4318 C   0  0  0  0  0  0  0  0  0  0  0  0
  -29.0691    0.7010   -5.2432 C   0  0  0  0  0  0  0  0  0  0  0  0
  -29.5344   -0.5332   -4.7712 C   0  0  0  0  0  0  0  0  0  0  0  0
  -29.2412   -1.6744   -5.5022 C   0  0  0  0  0  0  0  0  0  0  0  0
  -27.1394   -4.4725   -9.5277 H   0  0  0  0  0  0  0  0  0  0  0  0
  -30.1177   -7.2407   -5.1695 N   0  0  0  0  0  0  0  0  0  0  0  0
  -30.8964   -7.5055   -4.5600 H   0  0  0  0  0  0  0  0  0  0  0  0
  -28.7799   -8.1922   -4.7295 S   0  0  0  0  0  0  0  0  0  0  0  0
  -29.2317   -8.9555   -3.5847 O   0  0  0  0  0  0  0  0  0  0  0  0
  -27.5858   -7.3802   -4.6803 O   0  0  0  0  0  0  0  0  0  0  0  0
  -28.6463   -9.3228   -6.1283 C   0  0  0  0  0  0  0  0  0  0  0  0
  -29.9245   -9.2771   -6.9702 C   0  0  0  0  0  0  0  0  0  0  0  0
  -28.3247   -8.1212   -8.5366 C   0  0  0  0  0  0  0  0  0  0  0  0
  -29.6824   -8.8017   -8.4038 C   0  0  0  0  0  0  0  0  0  0  0  0
 24 25  1  0  0  0
 25 23  1  0  0  0
 23 22  1  0  0  0
 22 19  1  0  0  0
 19 20  2  0  0  0
 19 21  2  0  0  0
 19 17  1  0  0  0
 17  1  1  0  0  0
 17 18  1  0  0  0
  1  2  1  0  0  0
  1  6  2  0  0  0
  2  3  2  0  0  0
  3  4  1  0  0  0
  4  5  2  0  0  0
  4 15  1  0  0  0
  5  6  1  0  0  0
  5  7  1  0  0  0
  7  8  2  0  0  0
  7 10  1  0  0  0
  8  9  1  0  0  0
  9 16  1  0  0  0
 10 11  1  0  0  0
 10 15  2  0  0  0
 11 12  2  0  0  0
 12 13  1  0  0  0
 13 14  2  0  0  0
 14 15  1  0  0  0
M  END
> <minimizedAffinity>
-8.08240

$$$$
