CHEMBL3706825


 29 31  0  0  0  0  0  0  0  0999 V2000
  -27.6836   -1.8894   -5.7272 C   0  0  0  0  0  0  0  0  0  0  0  0
  -27.9180   -2.7553   -4.6347 C   0  0  0  0  0  0  0  0  0  0  0  0
  -28.5666   -3.9833   -4.7426 C   0  0  0  0  0  0  0  0  0  0  0  0
  -28.7873   -4.7124   -3.6427 N   0  0  0  0  0  0  0  0  0  0  0  0
  -29.4308   -5.8737   -3.8038 C   0  0  0  0  0  0  0  0  0  0  0  0
  -29.8613   -6.3768   -4.9663 N   0  0  0  0  0  0  0  0  0  0  0  0
  -29.6319   -5.6443   -6.0715 C   0  0  0  0  0  0  0  0  0  0  0  0
  -28.9829   -4.3956   -6.0083 C   0  0  0  0  0  0  0  0  0  0  0  0
  -28.7492   -3.5443   -7.1130 C   0  0  0  0  0  0  0  0  0  0  0  0
  -28.0985   -2.3023   -6.9982 C   0  0  0  0  0  0  0  0  0  0  0  0
  -30.1093   -6.1145   -7.3245 N   0  0  0  0  0  0  0  0  0  0  0  0
  -29.6182   -5.6964   -8.1145 H   0  0  0  0  0  0  0  0  0  0  0  0
  -30.5401   -7.3957   -7.6142 C   0  0  0  0  0  0  0  0  0  0  0  0
  -31.7470   -7.9266   -7.3847 C   0  0  0  0  0  0  0  0  0  0  0  0
  -32.1259   -9.3107   -7.7155 C   0  0  0  0  0  0  0  0  0  0  0  0
  -33.2691   -9.6830   -7.4692 O   0  0  0  0  0  0  0  0  0  0  0  0
  -31.0802  -10.1842   -8.3411 C   0  0  0  0  0  0  0  0  0  0  0  0
  -29.8863   -9.6588   -8.6159 C   0  0  0  0  0  0  0  0  0  0  0  0
  -29.5289   -8.2625   -8.3103 C   0  0  0  0  0  0  0  0  0  0  0  0
  -28.4222   -7.8171   -8.6082 O   0  0  0  0  0  0  0  0  0  0  0  0
  -31.2845  -11.5225   -8.6659 O   0  0  0  0  0  0  0  0  0  0  0  0
  -30.3021  -12.4615   -8.2539 C   0  0  0  0  0  0  0  0  0  0  0  0
  -28.1237   -1.6439   -8.1938 O   0  0  0  0  0  0  0  0  0  0  0  0
  -27.4020   -2.1270   -9.3137 C   0  0  0  0  0  0  0  0  0  0  0  0
  -27.1029   -0.7210   -5.2990 O   0  0  0  0  0  0  0  0  0  0  0  0
  -27.9579    0.3134   -4.8566 C   0  0  0  0  0  0  0  0  0  0  0  0
  -28.6882    1.0335   -5.9811 C   0  0  0  0  0  0  0  0  0  0  0  0
  -30.9247    1.6875   -6.4596 C   0  0  0  0  0  0  0  0  0  0  0  0
  -30.0800    0.8347   -5.7117 O   0  0  0  0  0  0  0  0  0  0  0  0
 28 29  1  0  0  0
 29 27  1  0  0  0
 27 26  1  0  0  0
 26 25  1  0  0  0
 25  1  1  0  0  0
  1  2  1  0  0  0
  1 10  2  0  0  0
  2  3  2  0  0  0
  3  4  1  0  0  0
  3  8  1  0  0  0
  4  5  2  0  0  0
  5  6  1  0  0  0
  6  7  2  0  0  0
  7 11  1  0  0  0
  7  8  1  0  0  0
 11 13  1  0  0  0
 11 12  1  0  0  0
 13 14  2  0  0  0
 13 19  1  0  0  0
 14 15  1  0  0  0
 15 16  2  0  0  0
 15 17  1  0  0  0
 17 21  1  0  0  0
 17 18  2  0  0  0
 21 22  1  0  0  0
 18 19  1  0  0  0
 19 20  2  0  0  0
  8  9  2  0  0  0
  9 10  1  0  0  0
 10 23  1  0  0  0
 23 24  1  0  0  0
M  END
> <minimizedAffinity>
-7.95272

$$$$
