CHEMBL209861


 26 30  0  0  0  0  0  0  0  0999 V2000
  -29.9301   -7.8806   -7.1652 C   0  0  0  0  0  0  0  0  0  0  0  0
  -29.8395   -8.1707   -5.7771 C   0  0  0  0  0  0  0  0  0  0  0  0
  -29.7927   -7.1656   -4.8141 C   0  0  0  0  0  0  0  0  0  0  0  0
  -29.7899   -5.8719   -5.2696 C   0  0  0  0  0  0  0  0  0  0  0  0
  -29.8242   -5.5332   -6.6496 C   0  0  0  0  0  0  0  0  0  0  0  0
  -29.9209   -6.5399   -7.6026 C   0  0  0  0  0  0  0  0  0  0  0  0
  -29.7195   -4.0059   -6.8958 C   0  0  0  0  0  0  0  0  0  0  0  0
  -29.6438   -3.5893   -5.4634 C   0  0  0  0  0  0  0  0  0  0  0  0
  -29.4574   -2.4603   -4.6482 C   0  0  0  0  0  0  0  0  0  0  0  0
  -29.4700   -2.8051   -3.3388 N   0  0  0  0  0  0  0  0  0  0  0  0
  -29.6277   -4.1505   -3.3397 N   0  0  0  0  0  0  0  0  0  0  0  0
  -29.7060   -4.6350   -4.5883 C   0  0  0  0  0  0  0  0  0  0  0  0
  -29.6565   -4.6425   -2.4530 H   0  0  0  0  0  0  0  0  0  0  0  0
  -29.2294   -1.0516   -5.1289 C   0  0  0  0  0  0  0  0  0  0  0  0
  -30.2254   -0.2280   -5.4050 N   0  0  0  0  0  0  0  0  0  0  0  0
  -29.7198    0.9756   -5.8548 C   0  0  0  0  0  0  0  0  0  0  0  0
  -28.3474    1.0597   -5.9310 C   0  0  0  0  0  0  0  0  0  0  0  0
  -27.6512   -0.4095   -5.3938 S   0  0  0  0  0  0  0  0  0  0  0  0
  -30.0337   -9.0291   -8.1567 C   0  0  0  0  0  0  0  0  0  0  0  0
  -27.1661   -9.4605  -11.9776 C   0  0  0  0  0  0  0  0  0  0  0  0
  -27.4127   -9.9914  -10.6398 N   0  0  0  0  0  0  0  0  0  0  0  0
  -27.2688   -8.9379   -9.6219 C   0  0  0  0  0  0  0  0  0  0  0  0
  -27.5946   -9.4653   -8.2053 C   0  0  0  0  0  0  0  0  0  0  0  0
  -28.9543  -10.0290   -8.0595 N   0  0  0  0  0  0  0  0  0  0  0  0
  -29.1091  -11.0694   -9.1068 C   0  0  0  0  0  0  0  0  0  0  0  0
  -28.7447  -10.6176  -10.5484 C   0  0  0  0  0  0  0  0  0  0  0  0
 20 21  1  0  0  0
 21 22  1  0  0  0
 21 26  1  0  0  0
 22 23  1  0  0  0
 23 24  1  0  0  0
 24 19  1  0  0  0
 24 25  1  0  0  0
 19  1  1  0  0  0
  1  2  1  0  0  0
  1  6  2  0  0  0
  2  3  2  0  0  0
  3  4  1  0  0  0
  4  5  2  0  0  0
  4 12  1  0  0  0
  5  6  1  0  0  0
  5  7  1  0  0  0
  7  8  1  0  0  0
  8  9  1  0  0  0
  8 12  2  0  0  0
  9 14  1  0  0  0
  9 10  2  0  0  0
 14 15  2  0  0  0
 14 18  1  0  0  0
 15 16  1  0  0  0
 16 17  2  0  0  0
 17 18  1  0  0  0
 10 11  1  0  0  0
 11 12  1  0  0  0
 11 13  1  0  0  0
 25 26  1  0  0  0
M  END
> <minimizedAffinity>
-8.10078

$$$$
