CHEMBL407715


 39 43  0  0  0  0  0  0  0  0999 V2000
  -27.5954   -1.4759   -9.7467 C   0  0  0  0  0  0  0  0  0  0  0  0
  -26.2137   -1.3937   -9.6425 C   0  0  0  0  0  0  0  0  0  0  0  0
  -25.4456   -1.2982  -10.8072 C   0  0  0  0  0  0  0  0  0  0  0  0
  -26.0004   -1.4989  -12.0980 C   0  0  0  0  0  0  0  0  0  0  0  0
  -25.2848   -1.4212  -13.3408 C   0  0  0  0  0  0  0  0  0  0  0  0
  -25.9592   -1.6504  -14.5534 C   0  0  0  0  0  0  0  0  0  0  0  0
  -27.3121   -1.9374  -14.5834 C   0  0  0  0  0  0  0  0  0  0  0  0
  -28.0252   -1.9841  -13.3947 C   0  0  0  0  0  0  0  0  0  0  0  0
  -27.3948   -1.7604  -12.1576 C   0  0  0  0  0  0  0  0  0  0  0  0
  -28.1710   -1.7303  -10.9888 C   0  0  0  0  0  0  0  0  0  0  0  0
  -23.8490   -1.0408  -13.4878 C   0  0  0  0  0  0  0  0  0  0  0  0
  -23.0332   -1.6690  -12.8153 O   0  0  0  0  0  0  0  0  0  0  0  0
  -23.5552    0.0414  -14.2957 N   0  0  0  0  0  0  0  0  0  0  0  0
  -24.3335    0.5960  -14.6249 H   0  0  0  0  0  0  0  0  0  0  0  0
  -22.2721    0.5812  -14.5268 C   0  0  0  0  0  0  0  0  0  0  0  0
  -21.2443   -0.1187  -15.1501 C   0  0  0  0  0  0  0  0  0  0  0  0
  -19.9534    0.4146  -15.2153 C   0  0  0  0  0  0  0  0  0  0  0  0
  -19.6497    1.6679  -14.6648 C   0  0  0  0  0  0  0  0  0  0  0  0
  -20.7205    2.4053  -14.1294 C   0  0  0  0  0  0  0  0  0  0  0  0
  -22.0160    1.8743  -14.0697 C   0  0  0  0  0  0  0  0  0  0  0  0
  -18.2129    2.2124  -14.6115 C   0  0  0  0  0  0  0  0  0  0  0  0
  -17.5384    2.2716  -16.0017 C   0  0  0  0  0  0  0  0  0  0  0  0
  -18.2082    3.6352  -14.0203 C   0  0  0  0  0  0  0  0  0  0  0  0
  -17.3344    1.3028  -13.7226 C   0  0  0  0  0  0  0  0  0  0  0  0
  -28.4653   -1.2300   -8.7108 O   0  0  0  0  0  0  0  0  0  0  0  0
  -28.7936   -5.2259   -5.3537 C   0  0  0  0  0  0  0  0  0  0  0  0
  -28.1905   -4.1128   -4.7434 C   0  0  0  0  0  0  0  0  0  0  0  0
  -27.9570   -2.9188   -5.4152 C   0  0  0  0  0  0  0  0  0  0  0  0
  -27.5472   -1.8586   -4.6981 N   0  0  0  0  0  0  0  0  0  0  0  0
  -27.4294   -0.6690   -5.3216 C   0  0  0  0  0  0  0  0  0  0  0  0
  -27.7231   -0.4721   -6.6532 C   0  0  0  0  0  0  0  0  0  0  0  0
  -28.1429   -1.5705   -7.4040 C   0  0  0  0  0  0  0  0  0  0  0  0
  -28.2064   -2.8542   -6.7947 C   0  0  0  0  0  0  0  0  0  0  0  0
  -28.5502   -4.0685   -7.4351 C   0  0  0  0  0  0  0  0  0  0  0  0
  -28.9668   -5.2063   -6.7355 C   0  0  0  0  0  0  0  0  0  0  0  0
  -30.4897   -6.2456   -4.0446 C   0  0  0  0  0  0  0  0  0  0  0  0
  -29.1909   -6.3241   -4.6363 O   0  0  0  0  0  0  0  0  0  0  0  0
  -29.5452   -6.1062   -7.5818 O   0  0  0  0  0  0  0  0  0  0  0  0
  -28.8474   -7.2549   -8.0226 C   0  0  0  0  0  0  0  0  0  0  0  0
 36 37  1  0  0  0
 37 26  1  0  0  0
 26 27  1  0  0  0
 26 35  2  0  0  0
 27 28  2  0  0  0
 28 29  1  0  0  0
 28 33  1  0  0  0
 29 30  2  0  0  0
 30 31  1  0  0  0
 31 32  2  0  0  0
 32 25  1  0  0  0
 32 33  1  0  0  0
 25  1  1  0  0  0
  1  2  1  0  0  0
  1 10  2  0  0  0
  2  3  2  0  0  0
  3  4  1  0  0  0
  4  5  1  0  0  0
  4  9  2  0  0  0
  5 11  1  0  0  0
  5  6  2  0  0  0
 11 12  2  0  0  0
 11 13  1  0  0  0
 13 15  1  0  0  0
 13 14  1  0  0  0
 15 16  1  0  0  0
 15 20  2  0  0  0
 16 17  2  0  0  0
 17 18  1  0  0  0
 18 21  1  0  0  0
 18 19  2  0  0  0
 21 22  1  0  0  0
 21 23  1  0  0  0
 21 24  1  0  0  0
 19 20  1  0  0  0
  6  7  1  0  0  0
  7  8  2  0  0  0
  8  9  1  0  0  0
  9 10  1  0  0  0
 33 34  2  0  0  0
 34 35  1  0  0  0
 35 38  1  0  0  0
 38 39  1  0  0  0
M  END
> <minimizedAffinity>
-10.67284

$$$$
