CHEMBL376089


 32 35  0  0  0  0  0  0  0  0999 V2000
  -28.7728   11.8897   -9.9413 C   0  0  0  0  0  0  0  0  0  0  0  0
  -29.2814   12.0456  -11.2414 C   0  0  0  0  0  0  0  0  0  0  0  0
  -30.6316   12.3523  -11.4606 C   0  0  0  0  0  0  0  0  0  0  0  0
  -31.5030   12.4334  -10.3753 C   0  0  0  0  0  0  0  0  0  0  0  0
  -31.0059   12.2234   -9.0850 C   0  0  0  0  0  0  0  0  0  0  0  0
  -29.6514   11.9455   -8.8505 C   0  0  0  0  0  0  0  0  0  0  0  0
  -32.8744   12.6361  -10.5777 N   0  0  0  0  0  0  0  0  0  0  0  0
  -33.6969   11.9104  -11.4529 C   0  0  0  0  0  0  0  0  0  0  0  0
  -34.9374   11.7378  -10.9555 N   0  0  0  0  0  0  0  0  0  0  0  0
  -35.7462   10.9271  -11.6383 C   0  0  0  0  0  0  0  0  0  0  0  0
  -35.4366   10.2656  -12.7522 N   0  0  0  0  0  0  0  0  0  0  0  0
  -34.2144   10.4767  -13.2612 C   0  0  0  0  0  0  0  0  0  0  0  0
  -33.2774   11.3542  -12.6766 C   0  0  0  0  0  0  0  0  0  0  0  0
  -31.9816   11.4592  -13.2676 N   0  0  0  0  0  0  0  0  0  0  0  0
  -31.1719   12.5952  -12.8409 C   0  0  0  0  0  0  0  0  0  0  0  0
  -33.4122   12.8016   -9.7325 H   0  0  0  0  0  0  0  0  0  0  0  0
  -31.4827   10.5945  -13.0603 H   0  0  0  0  0  0  0  0  0  0  0  0
  -26.8341   12.4021   -8.6831 C   0  0  0  0  0  0  0  0  0  0  0  0
  -27.4415   11.6495   -9.7341 O   0  0  0  0  0  0  0  0  0  0  0  0
  -29.3897   11.7734   -7.5176 O   0  0  0  0  0  0  0  0  0  0  0  0
  -30.1372   12.5085   -6.5627 C   0  0  0  0  0  0  0  0  0  0  0  0
  -33.8917    9.8516  -14.4874 N   0  0  0  0  0  0  0  0  0  0  0  0
  -33.6560   10.5593  -15.1785 H   0  0  0  0  0  0  0  0  0  0  0  0
  -32.9069    8.7863  -14.3682 C   0  0  0  0  0  0  0  0  0  0  0  0
  -31.5142    9.3690  -14.4446 C   0  0  0  0  0  0  0  0  0  0  0  0
  -30.6114    9.1417  -13.3901 C   0  0  0  0  0  0  0  0  0  0  0  0
  -29.3374    9.7074  -13.4092 C   0  0  0  0  0  0  0  0  0  0  0  0
  -28.9599   10.5081  -14.4808 C   0  0  0  0  0  0  0  0  0  0  0  0
  -27.7315   11.0474  -14.4804 F   0  0  0  0  0  0  0  0  0  0  0  0
  -29.8433   10.7507  -15.5312 C   0  0  0  0  0  0  0  0  0  0  0  0
  -29.3806   11.7550  -16.8519 Cl  0  0  0  0  0  0  0  0  0  0  0  0
  -31.1214   10.1852  -15.5159 C   0  0  0  0  0  0  0  0  0  0  0  0
 18 19  1  0  0  0
 19  1  1  0  0  0
  1  2  1  0  0  0
  1  6  2  0  0  0
  2  3  2  0  0  0
  3  4  1  0  0  0
  3 15  1  0  0  0
  4  5  2  0  0  0
  4  7  1  0  0  0
  5  6  1  0  0  0
  6 20  1  0  0  0
 20 21  1  0  0  0
  7  8  1  0  0  0
  7 16  1  0  0  0
  8  9  1  0  0  0
  8 13  2  0  0  0
  9 10  2  0  0  0
 10 11  1  0  0  0
 11 12  2  0  0  0
 12 22  1  0  0  0
 12 13  1  0  0  0
 22 24  1  0  0  0
 22 23  1  0  0  0
 24 25  1  0  0  0
 25 26  1  0  0  0
 25 32  2  0  0  0
 26 27  2  0  0  0
 27 28  1  0  0  0
 28 29  1  0  0  0
 28 30  2  0  0  0
 30 31  1  0  0  0
 30 32  1  0  0  0
 13 14  1  0  0  0
 14 15  1  0  0  0
 14 17  1  0  0  0
M  END
> <minimizedAffinity>
6.45270

$$$$
