CHEMBL222817


 37 40  0  0  0  0  0  0  0  0999 V2000
  -14.4953   -5.7391  -13.0711 C   0  0  0  0  0  0  0  0  0  0  0  0
  -15.3908   -6.6907  -13.5621 C   0  0  0  0  0  0  0  0  0  0  0  0
  -14.9476   -7.8789  -14.1424 C   0  0  0  0  0  0  0  0  0  0  0  0
  -13.5917   -8.1079  -14.3779 C   0  0  0  0  0  0  0  0  0  0  0  0
  -12.6814   -7.1296  -13.9838 C   0  0  0  0  0  0  0  0  0  0  0  0
  -13.1294   -5.9658  -13.3315 C   0  0  0  0  0  0  0  0  0  0  0  0
  -15.2518   -1.0614  -12.8676 N   0  0  0  0  0  0  0  0  0  0  0  0
  -14.6454   -1.2715  -14.0278 N   0  0  0  0  0  0  0  0  0  0  0  0
  -14.5274   -2.5907  -14.0813 C   0  0  0  0  0  0  0  0  0  0  0  0
  -14.0713   -3.1607  -15.2035 N   0  0  0  0  0  0  0  0  0  0  0  0
  -14.9291   -3.2384  -12.8633 C   0  0  0  0  0  0  0  0  0  0  0  0
  -14.9670   -4.5610  -12.3140 C   0  0  0  0  0  0  0  0  0  0  0  0
  -15.4759   -4.7033  -11.0015 C   0  0  0  0  0  0  0  0  0  0  0  0
  -15.9466   -3.6179  -10.2607 C   0  0  0  0  0  0  0  0  0  0  0  0
  -15.9283   -2.3322  -10.7948 C   0  0  0  0  0  0  0  0  0  0  0  0
  -15.4067   -2.1740  -12.0830 C   0  0  0  0  0  0  0  0  0  0  0  0
  -13.9564   -2.5479  -16.0034 H   0  0  0  0  0  0  0  0  0  0  0  0
  -14.3540   -4.1025  -15.4528 H   0  0  0  0  0  0  0  0  0  0  0  0
  -15.6563    0.2402  -12.5253 O   0  0  0  0  0  0  0  0  0  0  0  0
  -15.8844    0.9782  -13.7307 C   0  0  0  0  0  0  0  0  0  0  0  0
  -17.3745    1.0706  -14.0259 C   0  0  0  0  0  0  0  0  0  0  0  0
  -17.7077    2.4976  -15.8755 C   0  0  0  0  0  0  0  0  0  0  0  0
  -17.5488    1.1557  -15.4405 O   0  0  0  0  0  0  0  0  0  0  0  0
  -13.1179   -9.2980  -14.9789 N   0  0  0  0  0  0  0  0  0  0  0  0
  -13.2745   -9.5916  -16.3192 C   0  0  0  0  0  0  0  0  0  0  0  0
  -13.6864   -8.7938  -17.1567 O   0  0  0  0  0  0  0  0  0  0  0  0
  -12.9486  -10.9068  -16.6240 N   0  0  0  0  0  0  0  0  0  0  0  0
  -12.4383   -9.8483  -14.4734 H   0  0  0  0  0  0  0  0  0  0  0  0
  -13.2289  -11.5722  -15.9134 H   0  0  0  0  0  0  0  0  0  0  0  0
  -13.1648  -11.3407  -17.9611 C   0  0  0  0  0  0  0  0  0  0  0  0
  -12.2051  -11.1109  -18.9555 C   0  0  0  0  0  0  0  0  0  0  0  0
  -12.5118  -11.3083  -20.3059 C   0  0  0  0  0  0  0  0  0  0  0  0
  -11.5228  -10.9272  -21.3683 C   0  0  0  0  0  0  0  0  0  0  0  0
  -13.7861  -11.7763  -20.6510 C   0  0  0  0  0  0  0  0  0  0  0  0
  -14.7241  -12.0751  -19.6573 C   0  0  0  0  0  0  0  0  0  0  0  0
  -14.4024  -11.8719  -18.3185 C   0  0  0  0  0  0  0  0  0  0  0  0
  -15.3329  -12.0907  -17.3764 F   0  0  0  0  0  0  0  0  0  0  0  0
 22 23  1  0  0  0
 23 21  1  0  0  0
 21 20  1  0  0  0
 20 19  1  0  0  0
 19  7  1  0  0  0
  7  8  1  0  0  0
  7 16  1  0  0  0
  8  9  2  0  0  0
  9 10  1  0  0  0
  9 11  1  0  0  0
 10 17  1  0  0  0
 10 18  1  0  0  0
 11 12  1  0  0  0
 11 16  2  0  0  0
 12  1  1  0  0  0
 12 13  2  0  0  0
  1  2  1  0  0  0
  1  6  2  0  0  0
  2  3  2  0  0  0
  3  4  1  0  0  0
  4 24  1  0  0  0
  4  5  2  0  0  0
 24 25  1  0  0  0
 24 28  1  0  0  0
 25 26  2  0  0  0
 25 27  1  0  0  0
 27 30  1  0  0  0
 27 29  1  0  0  0
 30 31  1  0  0  0
 30 36  2  0  0  0
 31 32  2  0  0  0
 32 33  1  0  0  0
 32 34  1  0  0  0
 34 35  2  0  0  0
 35 36  1  0  0  0
 36 37  1  0  0  0
  5  6  1  0  0  0
 13 14  1  0  0  0
 14 15  2  0  0  0
 15 16  1  0  0  0
M  END
> <minimizedAffinity>
-7.29113

$$$$
