CHEMBL3917483


 49 53  0  0  0  0  0  0  0  0999 V2000
  -28.5655   -4.6274   -5.9843 C   0  0  0  0  0  0  0  0  0  0  0  0
  -28.1880   -3.4960   -5.2972 C   0  0  0  0  0  0  0  0  0  0  0  0
  -27.9739   -2.3826   -6.1514 C   0  0  0  0  0  0  0  0  0  0  0  0
  -27.5718   -1.1564   -5.7308 N   0  0  0  0  0  0  0  0  0  0  0  0
  -27.4589   -0.2209   -6.6872 C   0  0  0  0  0  0  0  0  0  0  0  0
  -27.7246   -0.4190   -8.0284 C   0  0  0  0  0  0  0  0  0  0  0  0
  -28.0744   -1.6967   -8.4740 C   0  0  0  0  0  0  0  0  0  0  0  0
  -28.2208   -2.6869   -7.4902 C   0  0  0  0  0  0  0  0  0  0  0  0
  -28.6751   -4.3317   -7.6659 S   0  0  0  0  0  0  0  0  0  0  0  0
  -29.3462   -6.8601   -6.2884 N   0  0  0  0  0  0  0  0  0  0  0  0
  -28.8469   -5.9275   -5.4094 C   0  0  0  0  0  0  0  0  0  0  0  0
  -28.6459   -6.1974   -4.2276 O   0  0  0  0  0  0  0  0  0  0  0  0
  -29.4532   -6.5918   -7.2602 H   0  0  0  0  0  0  0  0  0  0  0  0
  -29.6538   -8.2008   -5.8718 C   0  0  0  0  0  0  0  0  0  0  0  0
  -28.4723   -9.1143   -6.1348 C   0  0  0  0  0  0  0  0  0  0  0  0
  -28.3655  -10.1636   -5.0337 C   0  0  0  0  0  0  0  0  0  0  0  0
  -24.7114  -11.2901   -4.7519 N   0  0  0  0  0  0  0  0  0  0  0  0
  -25.2039  -10.1201   -5.5062 C   0  0  0  0  0  0  0  0  0  0  0  0
  -26.1303   -9.1966   -4.6831 C   0  0  0  0  0  0  0  0  0  0  0  0
  -27.2951   -9.8697   -4.0726 N   0  0  0  0  0  0  0  0  0  0  0  0
  -26.8611  -11.1121   -3.3917 C   0  0  0  0  0  0  0  0  0  0  0  0
  -25.8753  -12.0024   -4.1892 C   0  0  0  0  0  0  0  0  0  0  0  0
  -23.7541  -10.9077   -3.6862 C   0  0  0  0  0  0  0  0  0  0  0  0
  -22.3547  -11.4841   -3.9134 C   0  0  0  0  0  0  0  0  0  0  0  0
  -21.3657  -11.3168   -3.2131 O   0  0  0  0  0  0  0  0  0  0  0  0
  -22.3587  -12.1890   -5.0867 O   0  0  0  0  0  0  0  0  0  0  0  0
  -21.8796  -11.1458   -7.1728 C   0  0  0  0  0  0  0  0  0  0  0  0
  -21.2842  -11.8661   -5.9787 C   0  0  0  0  0  0  0  0  0  0  0  0
  -28.3275   -2.0067   -9.7994 O   0  0  0  0  0  0  0  0  0  0  0  0
  -27.3235   -1.8292  -10.7240 C   0  0  0  0  0  0  0  0  0  0  0  0
  -26.0077   -1.5667  -10.3675 C   0  0  0  0  0  0  0  0  0  0  0  0
  -25.0715   -1.2620  -11.3482 C   0  0  0  0  0  0  0  0  0  0  0  0
  -25.3929   -1.3085  -12.7080 C   0  0  0  0  0  0  0  0  0  0  0  0
  -26.6923   -1.6831  -13.0671 C   0  0  0  0  0  0  0  0  0  0  0  0
  -27.6553   -1.9405  -12.0757 C   0  0  0  0  0  0  0  0  0  0  0  0
  -24.4601   -0.9850  -13.7247 N   0  0  0  0  0  0  0  0  0  0  0  0
  -23.4212   -0.0886  -13.5797 C   0  0  0  0  0  0  0  0  0  0  0  0
  -23.1498    0.5121  -12.5437 O   0  0  0  0  0  0  0  0  0  0  0  0
  -22.7059    0.1186  -14.7524 N   0  0  0  0  0  0  0  0  0  0  0  0
  -24.5055   -1.5024  -14.5899 H   0  0  0  0  0  0  0  0  0  0  0  0
  -23.2933    0.2171  -15.5720 H   0  0  0  0  0  0  0  0  0  0  0  0
  -21.6289    1.0481  -14.6833 C   0  0  0  0  0  0  0  0  0  0  0  0
  -20.3043    0.6177  -14.8383 C   0  0  0  0  0  0  0  0  0  0  0  0
  -19.2374    1.4733  -14.5434 C   0  0  0  0  0  0  0  0  0  0  0  0
  -17.8237    0.9753  -14.6190 C   0  0  0  0  0  0  0  0  0  0  0  0
  -19.5140    2.7713  -14.0954 C   0  0  0  0  0  0  0  0  0  0  0  0
  -20.8341    3.2240  -14.0001 C   0  0  0  0  0  0  0  0  0  0  0  0
  -21.8824    2.3682  -14.3191 C   0  0  0  0  0  0  0  0  0  0  0  0
  -23.1487    2.7857  -14.1621 F   0  0  0  0  0  0  0  0  0  0  0  0
 27 28  1  0  0  0
 28 26  1  0  0  0
 26 24  1  0  0  0
 24 25  2  0  0  0
 24 23  1  0  0  0
 23 17  1  0  0  0
 17 18  1  0  0  0
 17 22  1  0  0  0
 18 19  1  0  0  0
 19 20  1  0  0  0
 20 16  1  0  0  0
 20 21  1  0  0  0
 16 15  1  0  0  0
 15 14  1  0  0  0
 14 10  1  0  0  0
 10 11  1  0  0  0
 10 13  1  0  0  0
 11 12  2  0  0  0
 11  1  1  0  0  0
  1  2  2  0  0  0
  1  9  1  0  0  0
  2  3  1  0  0  0
  3  4  1  0  0  0
  3  8  2  0  0  0
  4  5  2  0  0  0
  5  6  1  0  0  0
  6  7  2  0  0  0
  7 29  1  0  0  0
  7  8  1  0  0  0
 29 30  1  0  0  0
 30 31  1  0  0  0
 30 35  2  0  0  0
 31 32  2  0  0  0
 32 33  1  0  0  0
 33 36  1  0  0  0
 33 34  2  0  0  0
 36 37  1  0  0  0
 36 40  1  0  0  0
 37 38  2  0  0  0
 37 39  1  0  0  0
 39 42  1  0  0  0
 39 41  1  0  0  0
 42 43  1  0  0  0
 42 48  2  0  0  0
 43 44  2  0  0  0
 44 45  1  0  0  0
 44 46  1  0  0  0
 46 47  2  0  0  0
 47 48  1  0  0  0
 48 49  1  0  0  0
 34 35  1  0  0  0
  8  9  1  0  0  0
 21 22  1  0  0  0
M  END
> <minimizedAffinity>
-9.49122

$$$$
