CHEMBL3660300


 46 49  0  0  0  0  0  0  0  0999 V2000
  -20.0838    1.5458  -14.6643 C   0  0  0  0  0  0  0  0  0  0  0  0
  -20.6780    0.2946  -14.7137 C   0  0  0  0  0  0  0  0  0  0  0  0
  -22.0119    0.1868  -14.3368 C   0  0  0  0  0  0  0  0  0  0  0  0
  -22.7308    1.3323  -14.0140 C   0  0  0  0  0  0  0  0  0  0  0  0
  -22.0518    2.5323  -13.9327 C   0  0  0  0  0  0  0  0  0  0  0  0
  -22.7300    3.6923  -13.5637 N   0  0  0  0  0  0  0  0  0  0  0  0
  -20.7524    2.6535  -14.2473 N   0  0  0  0  0  0  0  0  0  0  0  0
  -23.2897    3.5692  -12.7288 H   0  0  0  0  0  0  0  0  0  0  0  0
  -22.0420    4.4348  -13.4663 H   0  0  0  0  0  0  0  0  0  0  0  0
  -16.4587    1.5438  -15.5603 C   0  0  0  0  0  0  0  0  0  0  0  0
  -17.5879    0.8534  -15.1261 C   0  0  0  0  0  0  0  0  0  0  0  0
  -18.6916    1.7445  -15.0673 C   0  0  0  0  0  0  0  0  0  0  0  0
  -18.1937    2.9579  -15.4860 C   0  0  0  0  0  0  0  0  0  0  0  0
  -16.8548    2.8495  -15.8417 N   0  0  0  0  0  0  0  0  0  0  0  0
  -16.1294    3.9423  -16.3658 C   0  0  0  0  0  0  0  0  0  0  0  0
  -16.5274    5.0782  -16.1613 O   0  0  0  0  0  0  0  0  0  0  0  0
  -15.0981    1.0536  -15.6150 C   0  0  0  0  0  0  0  0  0  0  0  0
  -14.5652    0.5050  -16.5696 O   0  0  0  0  0  0  0  0  0  0  0  0
  -14.2007    0.2253  -13.6118 C   0  0  0  0  0  0  0  0  0  0  0  0
  -14.4613    1.3551  -14.4456 O   0  0  0  0  0  0  0  0  0  0  0  0
  -15.1064    3.5428  -17.1641 O   0  0  0  0  0  0  0  0  0  0  0  0
  -13.8308    4.2328  -17.0355 C   0  0  0  0  0  0  0  0  0  0  0  0
  -13.4876    4.4741  -15.5590 C   0  0  0  0  0  0  0  0  0  0  0  0
  -12.7627    3.2991  -17.6304 C   0  0  0  0  0  0  0  0  0  0  0  0
  -13.8073    5.5362  -17.8494 C   0  0  0  0  0  0  0  0  0  0  0  0
  -22.5515   -1.0789  -14.3597 O   0  0  0  0  0  0  0  0  0  0  0  0
  -23.6634   -1.3481  -13.5949 C   0  0  0  0  0  0  0  0  0  0  0  0
  -23.4213   -1.6695  -12.2656 C   0  0  0  0  0  0  0  0  0  0  0  0
  -24.4846   -1.9910  -11.4200 C   0  0  0  0  0  0  0  0  0  0  0  0
  -25.8095   -1.9930  -11.8808 C   0  0  0  0  0  0  0  0  0  0  0  0
  -26.0475   -1.6138  -13.2044 C   0  0  0  0  0  0  0  0  0  0  0  0
  -24.9829   -1.2665  -14.0496 C   0  0  0  0  0  0  0  0  0  0  0  0
  -26.9134   -2.3717  -11.0774 N   0  0  0  0  0  0  0  0  0  0  0  0
  -27.0865   -2.0333   -9.7497 C   0  0  0  0  0  0  0  0  0  0  0  0
  -26.3644   -1.2652   -9.1217 O   0  0  0  0  0  0  0  0  0  0  0  0
  -28.1749   -2.6751   -9.1700 N   0  0  0  0  0  0  0  0  0  0  0  0
  -27.6773   -2.8572  -11.5308 H   0  0  0  0  0  0  0  0  0  0  0  0
  -28.2784   -3.6468   -9.4355 H   0  0  0  0  0  0  0  0  0  0  0  0
  -28.4732   -2.3918   -7.8100 C   0  0  0  0  0  0  0  0  0  0  0  0
  -28.2817   -1.1075   -7.2843 C   0  0  0  0  0  0  0  0  0  0  0  0
  -28.4267   -0.8650   -5.9130 C   0  0  0  0  0  0  0  0  0  0  0  0
  -28.1741    0.5048   -5.3546 C   0  0  0  0  0  0  0  0  0  0  0  0
  -28.7742   -1.9263   -5.0679 C   0  0  0  0  0  0  0  0  0  0  0  0
  -29.0076   -3.2007   -5.5933 C   0  0  0  0  0  0  0  0  0  0  0  0
  -28.8777   -3.4203   -6.9620 C   0  0  0  0  0  0  0  0  0  0  0  0
  -29.0616   -4.6566   -7.4510 F   0  0  0  0  0  0  0  0  0  0  0  0
 19 20  1  0  0  0
 20 17  1  0  0  0
 17 18  2  0  0  0
 17 10  1  0  0  0
 10 11  2  0  0  0
 10 14  1  0  0  0
 11 12  1  0  0  0
 12  1  1  0  0  0
 12 13  2  0  0  0
  1  2  1  0  0  0
  1  7  2  0  0  0
  2  3  2  0  0  0
  3 26  1  0  0  0
  3  4  1  0  0  0
 26 27  1  0  0  0
 27 28  1  0  0  0
 27 32  2  0  0  0
 28 29  2  0  0  0
 29 30  1  0  0  0
 30 33  1  0  0  0
 30 31  2  0  0  0
 33 34  1  0  0  0
 33 37  1  0  0  0
 34 35  2  0  0  0
 34 36  1  0  0  0
 36 39  1  0  0  0
 36 38  1  0  0  0
 39 40  1  0  0  0
 39 45  2  0  0  0
 40 41  2  0  0  0
 41 42  1  0  0  0
 41 43  1  0  0  0
 43 44  2  0  0  0
 44 45  1  0  0  0
 45 46  1  0  0  0
 31 32  1  0  0  0
  4  5  2  0  0  0
  5  6  1  0  0  0
  5  7  1  0  0  0
  6  8  1  0  0  0
  6  9  1  0  0  0
 13 14  1  0  0  0
 14 15  1  0  0  0
 15 16  2  0  0  0
 15 21  1  0  0  0
 21 22  1  0  0  0
 22 23  1  0  0  0
 22 24  1  0  0  0
 22 25  1  0  0  0
M  END
> <minimizedAffinity>
-10.78644

$$$$
