CHEMBL452088


 42 46  0  0  0  0  0  0  0  0999 V2000
  -11.5750   -0.4570  -14.5031 C   0  0  0  0  0  0  0  0  0  0  0  0
  -12.5229   -0.5439  -15.5243 C   0  0  0  0  0  0  0  0  0  0  0  0
  -13.1190    0.6113  -16.0828 C   0  0  0  0  0  0  0  0  0  0  0  0
  -12.7442    1.8786  -15.5908 C   0  0  0  0  0  0  0  0  0  0  0  0
  -13.0882    3.2476  -15.8417 C   0  0  0  0  0  0  0  0  0  0  0  0
  -12.3634    4.0719  -15.0800 N   0  0  0  0  0  0  0  0  0  0  0  0
  -11.6826    3.2638  -14.2592 N   0  0  0  0  0  0  0  0  0  0  0  0
  -10.9449    3.8390  -13.1615 C   0  0  0  0  0  0  0  0  0  0  0  0
  -11.8171    1.9327  -14.5494 C   0  0  0  0  0  0  0  0  0  0  0  0
  -11.2371    0.7912  -13.9715 C   0  0  0  0  0  0  0  0  0  0  0  0
  -14.0488    3.7108  -16.7232 N   0  0  0  0  0  0  0  0  0  0  0  0
  -15.4077    3.5051  -16.6484 C   0  0  0  0  0  0  0  0  0  0  0  0
  -16.1145    3.8065  -17.6089 O   0  0  0  0  0  0  0  0  0  0  0  0
  -15.8794    3.0061  -15.4637 N   0  0  0  0  0  0  0  0  0  0  0  0
  -13.7352    4.1357  -17.5823 H   0  0  0  0  0  0  0  0  0  0  0  0
  -15.2469    3.1559  -14.6787 H   0  0  0  0  0  0  0  0  0  0  0  0
  -17.2096    2.6670  -15.1647 C   0  0  0  0  0  0  0  0  0  0  0  0
  -18.2510    3.5698  -15.3943 C   0  0  0  0  0  0  0  0  0  0  0  0
  -19.5794    3.1884  -15.1678 C   0  0  0  0  0  0  0  0  0  0  0  0
  -19.8842    1.9124  -14.6695 C   0  0  0  0  0  0  0  0  0  0  0  0
  -18.8342    1.0114  -14.4328 C   0  0  0  0  0  0  0  0  0  0  0  0
  -17.5129    1.3769  -14.7048 C   0  0  0  0  0  0  0  0  0  0  0  0
  -16.2641    0.2235  -14.3833 Cl  0  0  0  0  0  0  0  0  0  0  0  0
  -21.3064    1.4969  -14.3814 C   0  0  0  0  0  0  0  0  0  0  0  0
  -21.8118    0.6113  -15.2835 F   0  0  0  0  0  0  0  0  0  0  0  0
  -21.4360    0.9028  -13.1627 F   0  0  0  0  0  0  0  0  0  0  0  0
  -22.1638    2.5544  -14.3736 F   0  0  0  0  0  0  0  0  0  0  0  0
  -11.0574   -1.6487  -14.0232 O   0  0  0  0  0  0  0  0  0  0  0  0
  -14.6589   -4.8509  -12.3171 C   0  0  0  0  0  0  0  0  0  0  0  0
  -14.1340   -5.3334  -13.5250 C   0  0  0  0  0  0  0  0  0  0  0  0
  -13.1398   -4.6752  -14.2353 C   0  0  0  0  0  0  0  0  0  0  0  0
  -12.6542   -5.2707  -15.3302 N   0  0  0  0  0  0  0  0  0  0  0  0
  -11.6712   -4.6561  -16.0139 C   0  0  0  0  0  0  0  0  0  0  0  0
  -11.1221   -3.4457  -15.6460 C   0  0  0  0  0  0  0  0  0  0  0  0
  -11.6009   -2.8443  -14.4807 C   0  0  0  0  0  0  0  0  0  0  0  0
  -12.6677   -3.4379  -13.7591 C   0  0  0  0  0  0  0  0  0  0  0  0
  -13.2726   -2.8914  -12.6056 C   0  0  0  0  0  0  0  0  0  0  0  0
  -14.2530   -3.5873  -11.8720 C   0  0  0  0  0  0  0  0  0  0  0  0
  -16.9275   -5.4834  -12.0059 C   0  0  0  0  0  0  0  0  0  0  0  0
  -15.5596   -5.5834  -11.5921 O   0  0  0  0  0  0  0  0  0  0  0  0
  -14.6658   -2.8842  -10.7720 O   0  0  0  0  0  0  0  0  0  0  0  0
  -14.4572   -3.4077   -9.4696 C   0  0  0  0  0  0  0  0  0  0  0  0
 39 40  1  0  0  0
 40 29  1  0  0  0
 29 30  1  0  0  0
 29 38  2  0  0  0
 30 31  2  0  0  0
 31 32  1  0  0  0
 31 36  1  0  0  0
 32 33  2  0  0  0
 33 34  1  0  0  0
 34 35  2  0  0  0
 35 28  1  0  0  0
 35 36  1  0  0  0
 28  1  1  0  0  0
  1  2  1  0  0  0
  1 10  2  0  0  0
  2  3  2  0  0  0
  3  4  1  0  0  0
  4  5  1  0  0  0
  4  9  2  0  0  0
  5 11  1  0  0  0
  5  6  2  0  0  0
 11 12  1  0  0  0
 11 15  1  0  0  0
 12 13  2  0  0  0
 12 14  1  0  0  0
 14 17  1  0  0  0
 14 16  1  0  0  0
 17 18  1  0  0  0
 17 22  2  0  0  0
 18 19  2  0  0  0
 19 20  1  0  0  0
 20 24  1  0  0  0
 20 21  2  0  0  0
 24 25  1  0  0  0
 24 26  1  0  0  0
 24 27  1  0  0  0
 21 22  1  0  0  0
 22 23  1  0  0  0
  6  7  1  0  0  0
  7  8  1  0  0  0
  7  9  1  0  0  0
  9 10  1  0  0  0
 36 37  2  0  0  0
 37 38  1  0  0  0
 38 41  1  0  0  0
 41 42  1  0  0  0
M  END
> <minimizedAffinity>
-8.25636

$$$$
