CHEMBL1988141


 23 24  0  0  0  0  0  0  0  0999 V2000
  -29.2073   -2.8363   -6.6724 C   0  0  0  0  0  0  0  0  0  0  0  0
  -30.1439   -3.6905   -6.0852 C   0  0  0  0  0  0  0  0  0  0  0  0
  -30.1326   -5.0588   -6.3552 C   0  0  0  0  0  0  0  0  0  0  0  0
  -29.1404   -5.6041   -7.1692 C   0  0  0  0  0  0  0  0  0  0  0  0
  -28.2829   -4.7387   -7.8588 C   0  0  0  0  0  0  0  0  0  0  0  0
  -27.3852   -5.1813   -8.7949 O   0  0  0  0  0  0  0  0  0  0  0  0
  -28.3097   -3.3623   -7.6092 C   0  0  0  0  0  0  0  0  0  0  0  0
  -27.6331   -6.1055   -9.0267 H   0  0  0  0  0  0  0  0  0  0  0  0
  -29.0080   -7.0784   -7.3111 C   0  0  0  0  0  0  0  0  0  0  0  0
  -29.0602   -7.5336   -8.4538 O   0  0  0  0  0  0  0  0  0  0  0  0
  -28.8148   -7.8646   -6.1767 N   0  0  0  0  0  0  0  0  0  0  0  0
  -28.8326   -9.3233   -6.2966 C   0  0  0  0  0  0  0  0  0  0  0  0
  -29.4613   -9.9929   -5.0499 C   0  0  0  0  0  0  0  0  0  0  0  0
  -28.9832   -9.4793   -3.7474 N   0  0  0  0  0  0  0  0  0  0  0  0
  -29.0460   -8.0062   -3.7365 C   0  0  0  0  0  0  0  0  0  0  0  0
  -28.2540   -7.3976   -4.9022 C   0  0  0  0  0  0  0  0  0  0  0  0
  -28.0092   -9.7568   -3.6281 H   0  0  0  0  0  0  0  0  0  0  0  0
  -28.5165   -0.8976   -5.2716 C   0  0  0  0  0  0  0  0  0  0  0  0
  -27.8300   -1.5058   -4.4559 O   0  0  0  0  0  0  0  0  0  0  0  0
  -29.1505   -1.4570   -6.3722 N   0  0  0  0  0  0  0  0  0  0  0  0
  -29.4924   -0.8213   -7.0850 H   0  0  0  0  0  0  0  0  0  0  0  0
  -30.1649    0.9782   -5.5403 C   0  0  0  0  0  0  0  0  0  0  0  0
  -28.7389    0.6007   -5.1631 C   0  0  0  0  0  0  0  0  0  0  0  0
 22 23  1  0  0  0
 23 18  1  0  0  0
 18 19  2  0  0  0
 18 20  1  0  0  0
 20  1  1  0  0  0
 20 21  1  0  0  0
  1  2  1  0  0  0
  1  7  2  0  0  0
  2  3  2  0  0  0
  3  4  1  0  0  0
  4  9  1  0  0  0
  4  5  2  0  0  0
  9 10  2  0  0  0
  9 11  1  0  0  0
 11 12  1  0  0  0
 11 16  1  0  0  0
 12 13  1  0  0  0
 13 14  1  0  0  0
 14 15  1  0  0  0
 14 17  1  0  0  0
 15 16  1  0  0  0
  5  6  1  0  0  0
  5  7  1  0  0  0
  6  8  1  0  0  0
M  END
> <minimizedAffinity>
-7.31749

$$$$
