CHEMBL593909


 42 47  0  0  0  0  0  0  0  0999 V2000
  -28.9457   -5.7695   -7.6125 C   0  0  0  0  0  0  0  0  0  0  0  0
  -28.3800   -4.7587   -8.3902 C   0  0  0  0  0  0  0  0  0  0  0  0
  -28.2856   -3.4358   -7.9101 C   0  0  0  0  0  0  0  0  0  0  0  0
  -27.8731   -2.3449   -8.6890 C   0  0  0  0  0  0  0  0  0  0  0  0
  -27.7683   -1.1084   -8.1745 N   0  0  0  0  0  0  0  0  0  0  0  0
  -28.1098   -0.9538   -6.8962 C   0  0  0  0  0  0  0  0  0  0  0  0
  -28.5768   -1.9092   -6.0862 N   0  0  0  0  0  0  0  0  0  0  0  0
  -28.6675   -3.1360   -6.6009 C   0  0  0  0  0  0  0  0  0  0  0  0
  -29.1844   -4.1573   -5.8150 C   0  0  0  0  0  0  0  0  0  0  0  0
  -29.3112   -5.4693   -6.2912 C   0  0  0  0  0  0  0  0  0  0  0  0
  -28.0808   -7.7809   -8.6009 C   0  0  0  0  0  0  0  0  0  0  0  0
  -29.1770   -7.0288   -8.0912 O   0  0  0  0  0  0  0  0  0  0  0  0
  -27.6431   -2.5232  -10.0810 N   0  0  0  0  0  0  0  0  0  0  0  0
  -27.5758   -3.5083  -10.3195 H   0  0  0  0  0  0  0  0  0  0  0  0
  -26.7387   -1.7373  -10.8303 C   0  0  0  0  0  0  0  0  0  0  0  0
  -25.8037   -0.9100  -10.2000 C   0  0  0  0  0  0  0  0  0  0  0  0
  -24.8203   -0.2536  -10.9372 C   0  0  0  0  0  0  0  0  0  0  0  0
  -24.7613   -0.3803  -12.3328 C   0  0  0  0  0  0  0  0  0  0  0  0
  -25.7493   -1.1415  -12.9757 C   0  0  0  0  0  0  0  0  0  0  0  0
  -26.7236   -1.8002  -12.2251 C   0  0  0  0  0  0  0  0  0  0  0  0
  -27.6340   -2.5552  -12.8600 F   0  0  0  0  0  0  0  0  0  0  0  0
  -23.6288    0.2264  -13.0505 C   0  0  0  0  0  0  0  0  0  0  0  0
  -23.5063    1.5202  -13.2593 N   0  0  0  0  0  0  0  0  0  0  0  0
  -22.3180    1.7935  -13.9102 C   0  0  0  0  0  0  0  0  0  0  0  0
  -21.8362    3.0744  -14.2505 C   0  0  0  0  0  0  0  0  0  0  0  0
  -20.6087    3.2009  -14.9104 C   0  0  0  0  0  0  0  0  0  0  0  0
  -19.8676    2.0684  -15.2314 C   0  0  0  0  0  0  0  0  0  0  0  0
  -18.3623    2.2438  -16.0495 Cl  0  0  0  0  0  0  0  0  0  0  0  0
  -20.3197    0.7872  -14.9047 C   0  0  0  0  0  0  0  0  0  0  0  0
  -21.5507    0.6767  -14.2404 C   0  0  0  0  0  0  0  0  0  0  0  0
  -22.3618   -0.7387  -13.6971 S   0  0  0  0  0  0  0  0  0  0  0  0
  -29.8315   -6.3376   -5.3592 O   0  0  0  0  0  0  0  0  0  0  0  0
  -29.0258   -6.5333   -4.1981 C   0  0  0  0  0  0  0  0  0  0  0  0
  -29.0436   -8.0035   -3.7885 C   0  0  0  0  0  0  0  0  0  0  0  0
  -28.6700   -8.8469   -5.0122 C   0  0  0  0  0  0  0  0  0  0  0  0
  -27.6660   -9.8884   -4.7675 N   0  0  0  0  0  0  0  0  0  0  0  0
  -26.8781  -10.1129   -5.9997 C   0  0  0  0  0  0  0  0  0  0  0  0
  -25.7754  -11.1750   -5.8038 C   0  0  0  0  0  0  0  0  0  0  0  0
  -24.8362  -10.8877   -4.7025 N   0  0  0  0  0  0  0  0  0  0  0  0
  -23.9213   -9.8001   -5.0401 C   0  0  0  0  0  0  0  0  0  0  0  0
  -25.6119  -10.5864   -3.4822 C   0  0  0  0  0  0  0  0  0  0  0  0
  -26.7526   -9.5515   -3.6570 C   0  0  0  0  0  0  0  0  0  0  0  0
 11 12  1  0  0  0
 12  1  1  0  0  0
  1  2  1  0  0  0
  1 10  2  0  0  0
  2  3  2  0  0  0
  3  4  1  0  0  0
  3  8  1  0  0  0
  4 13  1  0  0  0
  4  5  2  0  0  0
 13 15  1  0  0  0
 13 14  1  0  0  0
 15 16  1  0  0  0
 15 20  2  0  0  0
 16 17  2  0  0  0
 17 18  1  0  0  0
 18 22  1  0  0  0
 18 19  2  0  0  0
 22 23  2  0  0  0
 22 31  1  0  0  0
 23 24  1  0  0  0
 24 25  1  0  0  0
 24 30  2  0  0  0
 25 26  2  0  0  0
 26 27  1  0  0  0
 27 28  1  0  0  0
 27 29  2  0  0  0
 29 30  1  0  0  0
 30 31  1  0  0  0
 19 20  1  0  0  0
 20 21  1  0  0  0
  5  6  1  0  0  0
  6  7  2  0  0  0
  7  8  1  0  0  0
  8  9  2  0  0  0
  9 10  1  0  0  0
 10 32  1  0  0  0
 32 33  1  0  0  0
 33 34  1  0  0  0
 34 35  1  0  0  0
 35 36  1  0  0  0
 36 37  1  0  0  0
 36 42  1  0  0  0
 37 38  1  0  0  0
 38 39  1  0  0  0
 39 40  1  0  0  0
 39 41  1  0  0  0
 41 42  1  0  0  0
M  END
> <minimizedAffinity>
-9.72180

$$$$
