CHEMBL1997623


 35 38  0  0  0  0  0  0  0  0999 V2000
  -23.0613   -0.2751  -13.0191 C   0  0  0  0  0  0  0  0  0  0  0  0
  -24.1895    0.3940  -12.5310 C   0  0  0  0  0  0  0  0  0  0  0  0
  -25.2399   -0.2893  -11.9133 C   0  0  0  0  0  0  0  0  0  0  0  0
  -25.2027   -1.6720  -11.7457 C   0  0  0  0  0  0  0  0  0  0  0  0
  -24.0749   -2.3588  -12.1995 C   0  0  0  0  0  0  0  0  0  0  0  0
  -23.0222   -1.6679  -12.8323 C   0  0  0  0  0  0  0  0  0  0  0  0
  -17.9131    2.5970  -16.2782 N   0  0  0  0  0  0  0  0  0  0  0  0
  -18.9688    2.8216  -15.4857 C   0  0  0  0  0  0  0  0  0  0  0  0
  -19.2815    4.0261  -15.0164 N   0  0  0  0  0  0  0  0  0  0  0  0
  -20.3724    3.8013  -14.2693 N   0  0  0  0  0  0  0  0  0  0  0  0
  -20.7801    2.4972  -14.2341 C   0  0  0  0  0  0  0  0  0  0  0  0
  -21.8405    1.8626  -13.5675 C   0  0  0  0  0  0  0  0  0  0  0  0
  -21.9854    0.4708  -13.7166 C   0  0  0  0  0  0  0  0  0  0  0  0
  -21.0785   -0.2111  -14.5556 C   0  0  0  0  0  0  0  0  0  0  0  0
  -20.0353    0.4411  -15.2290 C   0  0  0  0  0  0  0  0  0  0  0  0
  -19.8777    1.8230  -15.0464 C   0  0  0  0  0  0  0  0  0  0  0  0
  -17.4485    3.4090  -16.6683 H   0  0  0  0  0  0  0  0  0  0  0  0
  -17.8492    1.7606  -16.8429 H   0  0  0  0  0  0  0  0  0  0  0  0
  -20.7956    4.5923  -13.7923 H   0  0  0  0  0  0  0  0  0  0  0  0
  -26.2437   -2.3988  -11.1202 N   0  0  0  0  0  0  0  0  0  0  0  0
  -26.8161   -2.0926   -9.8976 C   0  0  0  0  0  0  0  0  0  0  0  0
  -26.5887   -1.0800   -9.2430 O   0  0  0  0  0  0  0  0  0  0  0  0
  -27.6608   -3.1004   -9.4520 N   0  0  0  0  0  0  0  0  0  0  0  0
  -26.7024   -3.1114  -11.6683 H   0  0  0  0  0  0  0  0  0  0  0  0
  -27.3731   -4.0291   -9.7227 H   0  0  0  0  0  0  0  0  0  0  0  0
  -28.3137   -2.9850   -8.2017 C   0  0  0  0  0  0  0  0  0  0  0  0
  -29.2852   -3.9271   -7.8629 C   0  0  0  0  0  0  0  0  0  0  0  0
  -29.8724   -3.8980   -6.5963 C   0  0  0  0  0  0  0  0  0  0  0  0
  -29.5277   -2.8998   -5.6819 C   0  0  0  0  0  0  0  0  0  0  0  0
  -28.5852   -1.9195   -6.0225 C   0  0  0  0  0  0  0  0  0  0  0  0
  -27.9804   -1.9761   -7.2885 C   0  0  0  0  0  0  0  0  0  0  0  0
  -28.2092   -0.8239   -5.0557 C   0  0  0  0  0  0  0  0  0  0  0  0
  -27.1979   -0.0283   -5.5067 F   0  0  0  0  0  0  0  0  0  0  0  0
  -29.2425    0.0163   -4.7745 F   0  0  0  0  0  0  0  0  0  0  0  0
  -27.7844   -1.3115   -3.8565 F   0  0  0  0  0  0  0  0  0  0  0  0
  7  8  1  0  0  0
  7 17  1  0  0  0
  7 18  1  0  0  0
  8  9  2  0  0  0
  8 16  1  0  0  0
  9 10  1  0  0  0
 10 11  1  0  0  0
 10 19  1  0  0  0
 11 12  1  0  0  0
 11 16  2  0  0  0
 12 13  2  0  0  0
 13  1  1  0  0  0
 13 14  1  0  0  0
  1  2  1  0  0  0
  1  6  2  0  0  0
  2  3  2  0  0  0
  3  4  1  0  0  0
  4 20  1  0  0  0
  4  5  2  0  0  0
 20 21  1  0  0  0
 20 24  1  0  0  0
 21 22  2  0  0  0
 21 23  1  0  0  0
 23 26  1  0  0  0
 23 25  1  0  0  0
 26 27  1  0  0  0
 26 31  2  0  0  0
 27 28  2  0  0  0
 28 29  1  0  0  0
 29 30  2  0  0  0
 30 32  1  0  0  0
 30 31  1  0  0  0
 32 33  1  0  0  0
 32 34  1  0  0  0
 32 35  1  0  0  0
  5  6  1  0  0  0
 14 15  2  0  0  0
 15 16  1  0  0  0
M  END
> <minimizedAffinity>
-12.13654

$$$$
