CHEMBL1242286


 26 28  0  0  0  0  0  0  0  0999 V2000
  -28.9324   -6.3039   -6.2399 C   0  0  0  0  0  0  0  0  0  0  0  0
  -28.8172   -6.8359   -7.4703 N   0  0  0  0  0  0  0  0  0  0  0  0
  -28.6730   -8.1597   -7.2536 N   0  0  0  0  0  0  0  0  0  0  0  0
  -28.7205   -8.4996   -5.9296 C   0  0  0  0  0  0  0  0  0  0  0  0
  -28.5911   -9.7307   -5.4061 N   0  0  0  0  0  0  0  0  0  0  0  0
  -28.6977   -9.7095   -4.0692 C   0  0  0  0  0  0  0  0  0  0  0  0
  -28.9429   -8.6497   -3.2749 N   0  0  0  0  0  0  0  0  0  0  0  0
  -29.0712   -7.4309   -3.8396 C   0  0  0  0  0  0  0  0  0  0  0  0
  -29.3255   -6.3802   -2.9714 N   0  0  0  0  0  0  0  0  0  0  0  0
  -28.9290   -7.3210   -5.2317 C   0  0  0  0  0  0  0  0  0  0  0  0
  -29.5872   -6.7120   -2.0496 H   0  0  0  0  0  0  0  0  0  0  0  0
  -29.8685   -5.6102   -3.3386 H   0  0  0  0  0  0  0  0  0  0  0  0
  -28.3412   -2.6142   -6.7172 C   0  0  0  0  0  0  0  0  0  0  0  0
  -28.2084   -4.0038   -6.8053 C   0  0  0  0  0  0  0  0  0  0  0  0
  -29.0645   -4.8569   -6.0858 C   0  0  0  0  0  0  0  0  0  0  0  0
  -30.0158   -4.2967   -5.2306 C   0  0  0  0  0  0  0  0  0  0  0  0
  -30.1580   -2.9128   -5.1354 C   0  0  0  0  0  0  0  0  0  0  0  0
  -29.3222   -2.0750   -5.8743 C   0  0  0  0  0  0  0  0  0  0  0  0
  -29.5775   -0.2002   -5.7149 Br  0  0  0  0  0  0  0  0  0  0  0  0
  -27.5346   -1.7404   -7.3963 O   0  0  0  0  0  0  0  0  0  0  0  0
  -27.6513   -1.7618   -8.8171 C   0  0  0  0  0  0  0  0  0  0  0  0
  -26.4863   -1.6761  -10.8590 C   0  0  0  0  0  0  0  0  0  0  0  0
  -26.3679   -1.7249   -9.4431 O   0  0  0  0  0  0  0  0  0  0  0  0
  -28.5148   -9.0708   -8.3836 C   0  0  0  0  0  0  0  0  0  0  0  0
  -29.8489   -9.3214   -9.0882 C   0  0  0  0  0  0  0  0  0  0  0  0
  -27.4601   -8.5679   -9.3695 C   0  0  0  0  0  0  0  0  0  0  0  0
 22 23  1  0  0  0
 23 21  1  0  0  0
 21 20  1  0  0  0
 20 13  1  0  0  0
 13 14  1  0  0  0
 13 18  2  0  0  0
 14 15  2  0  0  0
 15  1  1  0  0  0
 15 16  1  0  0  0
  1  2  2  0  0  0
  1 10  1  0  0  0
  2  3  1  0  0  0
  3 24  1  0  0  0
  3  4  1  0  0  0
 24 25  1  0  0  0
 24 26  1  0  0  0
  4  5  1  0  0  0
  4 10  2  0  0  0
  5  6  2  0  0  0
  6  7  1  0  0  0
  7  8  2  0  0  0
  8  9  1  0  0  0
  8 10  1  0  0  0
  9 11  1  0  0  0
  9 12  1  0  0  0
 16 17  2  0  0  0
 17 18  1  0  0  0
 18 19  1  0  0  0
M  END
> <minimizedAffinity>
-7.61668

$$$$
