CHEMBL381034


 33 36  0  0  0  0  0  0  0  0999 V2000
  -29.0593   -4.2538   -6.2259 C   0  0  0  0  0  0  0  0  0  0  0  0
  -29.7115   -4.3722   -7.4517 C   0  0  0  0  0  0  0  0  0  0  0  0
  -29.3847   -3.5497   -8.5331 C   0  0  0  0  0  0  0  0  0  0  0  0
  -28.4856   -2.4932   -8.3941 C   0  0  0  0  0  0  0  0  0  0  0  0
  -27.8930   -2.3015   -7.1474 C   0  0  0  0  0  0  0  0  0  0  0  0
  -28.1465   -3.1966   -6.0917 C   0  0  0  0  0  0  0  0  0  0  0  0
  -30.3592   -3.4952   -3.4377 C   0  0  0  0  0  0  0  0  0  0  0  0
  -29.9284   -4.8391   -3.9423 C   0  0  0  0  0  0  0  0  0  0  0  0
  -30.1993   -6.1679   -2.8984 S   0  0  0  0  0  0  0  0  0  0  0  0
  -29.5939   -7.2778   -4.0203 C   0  0  0  0  0  0  0  0  0  0  0  0
  -29.6034   -8.5837   -3.7064 N   0  0  0  0  0  0  0  0  0  0  0  0
  -29.1017   -9.3444   -4.6731 C   0  0  0  0  0  0  0  0  0  0  0  0
  -28.5956   -8.9333   -5.8391 N   0  0  0  0  0  0  0  0  0  0  0  0
  -28.5815   -7.6152   -6.1158 C   0  0  0  0  0  0  0  0  0  0  0  0
  -27.9956   -7.3057   -7.3344 N   0  0  0  0  0  0  0  0  0  0  0  0
  -29.1275   -6.6906   -5.1870 C   0  0  0  0  0  0  0  0  0  0  0  0
  -29.3403   -5.2282   -5.1490 C   0  0  0  0  0  0  0  0  0  0  0  0
  -27.5229   -8.1176   -7.7157 H   0  0  0  0  0  0  0  0  0  0  0  0
  -27.4737   -6.4402   -7.3567 H   0  0  0  0  0  0  0  0  0  0  0  0
  -28.1346   -1.6208   -9.4509 N   0  0  0  0  0  0  0  0  0  0  0  0
  -27.0905   -1.8181  -10.3302 C   0  0  0  0  0  0  0  0  0  0  0  0
  -26.3686   -2.8080  -10.3524 O   0  0  0  0  0  0  0  0  0  0  0  0
  -26.8881   -0.7307  -11.1769 N   0  0  0  0  0  0  0  0  0  0  0  0
  -28.7417   -0.8341   -9.6254 H   0  0  0  0  0  0  0  0  0  0  0  0
  -27.0760    0.1624  -10.7440 H   0  0  0  0  0  0  0  0  0  0  0  0
  -25.7904   -0.7828  -12.0776 C   0  0  0  0  0  0  0  0  0  0  0  0
  -24.5158   -0.3819  -11.6775 C   0  0  0  0  0  0  0  0  0  0  0  0
  -23.4946   -0.2457  -12.6169 C   0  0  0  0  0  0  0  0  0  0  0  0
  -21.9422    0.3084  -12.1190 Cl  0  0  0  0  0  0  0  0  0  0  0  0
  -23.7400   -0.5131  -13.9537 C   0  0  0  0  0  0  0  0  0  0  0  0
  -25.0039   -0.9586  -14.3401 C   0  0  0  0  0  0  0  0  0  0  0  0
  -25.3293   -1.2491  -16.0047 Cl  0  0  0  0  0  0  0  0  0  0  0  0
  -26.0263   -1.1259  -13.4036 C   0  0  0  0  0  0  0  0  0  0  0  0
  7  8  1  0  0  0
  8  9  1  0  0  0
  8 17  2  0  0  0
  9 10  1  0  0  0
 10 11  1  0  0  0
 10 16  2  0  0  0
 11 12  2  0  0  0
 12 13  1  0  0  0
 13 14  2  0  0  0
 14 15  1  0  0  0
 14 16  1  0  0  0
 15 18  1  0  0  0
 15 19  1  0  0  0
 16 17  1  0  0  0
 17  1  1  0  0  0
  1  2  1  0  0  0
  1  6  2  0  0  0
  2  3  2  0  0  0
  3  4  1  0  0  0
  4 20  1  0  0  0
  4  5  2  0  0  0
 20 21  1  0  0  0
 20 24  1  0  0  0
 21 22  2  0  0  0
 21 23  1  0  0  0
 23 26  1  0  0  0
 23 25  1  0  0  0
 26 27  1  0  0  0
 26 33  2  0  0  0
 27 28  2  0  0  0
 28 29  1  0  0  0
 28 30  1  0  0  0
 30 31  2  0  0  0
 31 32  1  0  0  0
 31 33  1  0  0  0
  5  6  1  0  0  0
M  END
> <minimizedAffinity>
-7.70553

$$$$
