CHEMBL430155


 30 33  0  0  0  0  0  0  0  0999 V2000
  -26.8428   -9.1911  -10.0531 C   0  0  0  0  0  0  0  0  0  0  0  0
  -27.9365   -8.7012   -9.1741 C   0  0  0  0  0  0  0  0  0  0  0  0
  -27.9510   -7.4035   -8.7246 N   0  0  0  0  0  0  0  0  0  0  0  0
  -29.0676   -7.1733   -7.9655 C   0  0  0  0  0  0  0  0  0  0  0  0
  -29.7752   -8.3604   -7.8854 C   0  0  0  0  0  0  0  0  0  0  0  0
  -31.0472   -8.5857   -7.1448 C   0  0  0  0  0  0  0  0  0  0  0  0
  -29.0536   -9.3417   -8.6567 C   0  0  0  0  0  0  0  0  0  0  0  0
  -27.2387   -6.7161   -8.9277 H   0  0  0  0  0  0  0  0  0  0  0  0
  -29.2734   -5.8649   -7.4658 C   0  0  0  0  0  0  0  0  0  0  0  0
  -28.9545   -5.5027   -6.2135 C   0  0  0  0  0  0  0  0  0  0  0  0
  -28.3325   -6.3697   -5.1386 C   0  0  0  0  0  0  0  0  0  0  0  0
  -28.0283   -7.5446   -5.1746 O   0  0  0  0  0  0  0  0  0  0  0  0
  -28.1564   -5.5224   -4.0589 N   0  0  0  0  0  0  0  0  0  0  0  0
  -28.6043   -4.2360   -4.3333 C   0  0  0  0  0  0  0  0  0  0  0  0
  -28.5672   -3.1563   -3.4734 C   0  0  0  0  0  0  0  0  0  0  0  0
  -29.0780   -1.9468   -3.9428 C   0  0  0  0  0  0  0  0  0  0  0  0
  -29.6085   -1.8504   -5.2430 C   0  0  0  0  0  0  0  0  0  0  0  0
  -29.6305   -2.9610   -6.1007 C   0  0  0  0  0  0  0  0  0  0  0  0
  -29.1165   -4.1590   -5.6322 C   0  0  0  0  0  0  0  0  0  0  0  0
  -27.7511   -5.8380   -3.1917 H   0  0  0  0  0  0  0  0  0  0  0  0
  -29.4764  -10.7648   -8.8964 C   0  0  0  0  0  0  0  0  0  0  0  0
  -28.6443  -11.8210   -8.1573 C   0  0  0  0  0  0  0  0  0  0  0  0
  -28.5246  -11.4433   -6.6709 C   0  0  0  0  0  0  0  0  0  0  0  0
  -27.1773  -11.5831   -6.0918 N   0  0  0  0  0  0  0  0  0  0  0  0
  -26.2367  -10.5514   -6.5693 C   0  0  0  0  0  0  0  0  0  0  0  0
  -24.8591  -10.6291   -5.8647 C   0  0  0  0  0  0  0  0  0  0  0  0
  -24.9056  -10.5816   -4.3903 N   0  0  0  0  0  0  0  0  0  0  0  0
  -25.2273   -9.2414   -3.9059 C   0  0  0  0  0  0  0  0  0  0  0  0
  -25.8799  -11.5836   -3.9168 C   0  0  0  0  0  0  0  0  0  0  0  0
  -27.2609  -11.5333   -4.6143 C   0  0  0  0  0  0  0  0  0  0  0  0
  1  2  1  0  0  0
  2  3  1  0  0  0
  2  7  2  0  0  0
  3  4  1  0  0  0
  3  8  1  0  0  0
  4  9  1  0  0  0
  4  5  2  0  0  0
  9 10  2  0  0  0
 10 11  1  0  0  0
 10 19  1  0  0  0
 11 12  2  0  0  0
 11 13  1  0  0  0
 13 14  1  0  0  0
 13 20  1  0  0  0
 14 15  1  0  0  0
 14 19  2  0  0  0
 15 16  2  0  0  0
 16 17  1  0  0  0
 17 18  2  0  0  0
 18 19  1  0  0  0
  5  6  1  0  0  0
  5  7  1  0  0  0
  7 21  1  0  0  0
 21 22  1  0  0  0
 22 23  1  0  0  0
 23 24  1  0  0  0
 24 25  1  0  0  0
 24 30  1  0  0  0
 25 26  1  0  0  0
 26 27  1  0  0  0
 27 28  1  0  0  0
 27 29  1  0  0  0
 29 30  1  0  0  0
M  END
> <minimizedAffinity>
-8.01988

$$$$
