CHEMBL376779


 40 45  0  0  0  0  0  0  0  0999 V2000
  -22.4368    1.2430  -14.0005 C   0  0  0  0  0  0  0  0  0  0  0  0
  -22.3867    2.6593  -14.1216 C   0  0  0  0  0  0  0  0  0  0  0  0
  -21.2594    3.3322  -14.5893 C   0  0  0  0  0  0  0  0  0  0  0  0
  -20.1488    2.5714  -14.8274 C   0  0  0  0  0  0  0  0  0  0  0  0
  -20.1186    1.1644  -14.6247 C   0  0  0  0  0  0  0  0  0  0  0  0
  -21.2708    0.4913  -14.2379 C   0  0  0  0  0  0  0  0  0  0  0  0
  -18.7201    0.5607  -14.8597 C   0  0  0  0  0  0  0  0  0  0  0  0
  -18.0303    1.8261  -15.2476 C   0  0  0  0  0  0  0  0  0  0  0  0
  -16.7812    2.3303  -15.6179 C   0  0  0  0  0  0  0  0  0  0  0  0
  -16.8135    3.6657  -15.8003 N   0  0  0  0  0  0  0  0  0  0  0  0
  -18.1133    3.9972  -15.5830 N   0  0  0  0  0  0  0  0  0  0  0  0
  -18.8397    2.9222  -15.2291 C   0  0  0  0  0  0  0  0  0  0  0  0
  -18.4007    4.9633  -15.6951 H   0  0  0  0  0  0  0  0  0  0  0  0
  -15.5891    1.5102  -15.7888 C   0  0  0  0  0  0  0  0  0  0  0  0
  -14.8330    1.4708  -16.9411 C   0  0  0  0  0  0  0  0  0  0  0  0
  -13.5278    0.3814  -16.8101 S   0  0  0  0  0  0  0  0  0  0  0  0
  -13.9644   -0.0422  -15.2123 C   0  0  0  0  0  0  0  0  0  0  0  0
  -15.0740    0.6494  -14.7752 C   0  0  0  0  0  0  0  0  0  0  0  0
  -13.2384   -1.0054  -14.4572 C   0  0  0  0  0  0  0  0  0  0  0  0
  -12.5828   -1.8702  -13.7344 C   0  0  0  0  0  0  0  0  0  0  0  0
  -11.8187   -2.8784  -12.8918 C   0  0  0  0  0  0  0  0  0  0  0  0
  -11.7284   -2.4835  -11.4928 N   0  0  0  0  0  0  0  0  0  0  0  0
  -12.2164   -1.6114  -11.2896 H   0  0  0  0  0  0  0  0  0  0  0  0
  -12.2916   -3.6913  -10.4313 S   0  0  0  0  0  0  0  0  0  0  0  0
  -11.4547   -4.8425  -10.6222 O   0  0  0  0  0  0  0  0  0  0  0  0
  -12.4262   -3.0618   -9.1261 O   0  0  0  0  0  0  0  0  0  0  0  0
  -13.9178   -4.1028  -11.0210 C   0  0  0  0  0  0  0  0  0  0  0  0
  -14.1871   -5.4093  -11.4387 C   0  0  0  0  0  0  0  0  0  0  0  0
  -15.4784   -5.7497  -11.8511 C   0  0  0  0  0  0  0  0  0  0  0  0
  -16.4988   -4.7983  -11.8200 C   0  0  0  0  0  0  0  0  0  0  0  0
  -16.2373   -3.5065  -11.3611 C   0  0  0  0  0  0  0  0  0  0  0  0
  -14.9444   -3.1520  -10.9670 C   0  0  0  0  0  0  0  0  0  0  0  0
  -23.7433    0.5626  -13.6091 C   0  0  0  0  0  0  0  0  0  0  0  0
  -27.2055   -1.6146  -11.0465 C   0  0  0  0  0  0  0  0  0  0  0  0
  -26.0060   -1.8265  -11.8465 N   0  0  0  0  0  0  0  0  0  0  0  0
  -26.1773   -1.3117  -13.2143 C   0  0  0  0  0  0  0  0  0  0  0  0
  -24.9054   -1.5996  -14.0426 C   0  0  0  0  0  0  0  0  0  0  0  0
  -23.6980   -0.9150  -13.5286 N   0  0  0  0  0  0  0  0  0  0  0  0
  -23.5395   -1.3583  -12.1162 C   0  0  0  0  0  0  0  0  0  0  0  0
  -24.8124   -1.2132  -11.2301 C   0  0  0  0  0  0  0  0  0  0  0  0
 34 35  1  0  0  0
 35 36  1  0  0  0
 35 40  1  0  0  0
 36 37  1  0  0  0
 37 38  1  0  0  0
 38 33  1  0  0  0
 38 39  1  0  0  0
 33  1  1  0  0  0
  1  2  1  0  0  0
  1  6  2  0  0  0
  2  3  2  0  0  0
  3  4  1  0  0  0
  4  5  2  0  0  0
  4 12  1  0  0  0
  5  6  1  0  0  0
  5  7  1  0  0  0
  7  8  1  0  0  0
  8  9  1  0  0  0
  8 12  2  0  0  0
  9 14  1  0  0  0
  9 10  2  0  0  0
 14 15  2  0  0  0
 14 18  1  0  0  0
 15 16  1  0  0  0
 16 17  1  0  0  0
 17 19  1  0  0  0
 17 18  2  0  0  0
 19 20  3  0  0  0
 20 21  1  0  0  0
 21 22  1  0  0  0
 22 24  1  0  0  0
 22 23  1  0  0  0
 24 25  2  0  0  0
 24 26  2  0  0  0
 24 27  1  0  0  0
 27 28  1  0  0  0
 27 32  2  0  0  0
 28 29  2  0  0  0
 29 30  1  0  0  0
 30 31  2  0  0  0
 31 32  1  0  0  0
 10 11  1  0  0  0
 11 12  1  0  0  0
 11 13  1  0  0  0
 39 40  1  0  0  0
M  END
> <minimizedAffinity>
-11.11456

$$$$
