CHEMBL233669


 27 30  0  0  0  0  0  0  0  0999 V2000
  -29.7806   -6.9317   -6.6899 C   0  0  0  0  0  0  0  0  0  0  0  0
  -29.5689   -7.4949   -5.4965 N   0  0  0  0  0  0  0  0  0  0  0  0
  -28.9234   -8.6772   -5.4958 C   0  0  0  0  0  0  0  0  0  0  0  0
  -28.4749   -9.3157   -6.6309 C   0  0  0  0  0  0  0  0  0  0  0  0
  -28.7561   -8.6939   -7.8322 C   0  0  0  0  0  0  0  0  0  0  0  0
  -29.4031   -7.4984   -7.8490 N   0  0  0  0  0  0  0  0  0  0  0  0
  -28.3933   -9.1990   -9.1846 C   0  0  0  0  0  0  0  0  0  0  0  0
  -27.1331   -8.9725   -9.7719 C   0  0  0  0  0  0  0  0  0  0  0  0
  -26.8381   -9.4072  -11.0685 C   0  0  0  0  0  0  0  0  0  0  0  0
  -27.7795  -10.1209  -11.7998 C   0  0  0  0  0  0  0  0  0  0  0  0
  -29.0135  -10.4107  -11.2284 C   0  0  0  0  0  0  0  0  0  0  0  0
  -29.3153   -9.9540   -9.9391 C   0  0  0  0  0  0  0  0  0  0  0  0
  -30.3846   -5.6762   -6.6903 N   0  0  0  0  0  0  0  0  0  0  0  0
  -31.2225   -5.7131   -7.2561 H   0  0  0  0  0  0  0  0  0  0  0  0
  -28.0689    1.1224   -4.7514 C   0  0  0  0  0  0  0  0  0  0  0  0
  -28.4642   -0.2105   -5.2643 C   0  0  0  0  0  0  0  0  0  0  0  0
  -29.2983   -1.1771   -4.7403 C   0  0  0  0  0  0  0  0  0  0  0  0
  -29.3260   -2.2741   -5.6470 C   0  0  0  0  0  0  0  0  0  0  0  0
  -29.9765   -3.5242   -5.6595 C   0  0  0  0  0  0  0  0  0  0  0  0
  -29.7398   -4.4257   -6.7107 C   0  0  0  0  0  0  0  0  0  0  0  0
  -28.9041   -4.0418   -7.7660 C   0  0  0  0  0  0  0  0  0  0  0  0
  -28.2662   -2.7990   -7.7902 C   0  0  0  0  0  0  0  0  0  0  0  0
  -28.4896   -1.9433   -6.7104 C   0  0  0  0  0  0  0  0  0  0  0  0
  -27.9847   -0.6895   -6.4580 N   0  0  0  0  0  0  0  0  0  0  0  0
  -27.3439   -0.2016   -7.0679 H   0  0  0  0  0  0  0  0  0  0  0  0
  -27.7323  -10.5229   -6.4879 C   0  0  0  0  0  0  0  0  0  0  0  0
  -27.1269  -11.5123   -6.4071 N   0  0  0  0  0  0  0  0  0  0  0  0
 15 16  1  0  0  0
 16 17  2  0  0  0
 16 24  1  0  0  0
 17 18  1  0  0  0
 18 19  1  0  0  0
 18 23  2  0  0  0
 19 20  2  0  0  0
 20 13  1  0  0  0
 20 21  1  0  0  0
 13  1  1  0  0  0
 13 14  1  0  0  0
  1  2  1  0  0  0
  1  6  2  0  0  0
  2  3  2  0  0  0
  3  4  1  0  0  0
  4 26  1  0  0  0
  4  5  2  0  0  0
 26 27  3  0  0  0
  5  7  1  0  0  0
  5  6  1  0  0  0
  7  8  1  0  0  0
  7 12  2  0  0  0
  8  9  2  0  0  0
  9 10  1  0  0  0
 10 11  2  0  0  0
 11 12  1  0  0  0
 21 22  2  0  0  0
 22 23  1  0  0  0
 23 24  1  0  0  0
 24 25  1  0  0  0
M  END
> <minimizedAffinity>
-8.20586

$$$$
