CHEMBL3921457


 37 41  0  0  0  0  0  0  0  0999 V2000
  -29.6230   -9.6111   -7.2874 N   0  0  0  0  0  0  0  0  0  0  0  0
  -29.6913   -8.2715   -6.7352 C   0  0  0  0  0  0  0  0  0  0  0  0
  -30.7992   -7.5523   -7.0894 C   0  0  0  0  0  0  0  0  0  0  0  0
  -30.6433   -6.2190   -7.2306 C   0  0  0  0  0  0  0  0  0  0  0  0
  -29.5499   -5.5136   -6.8473 C   0  0  0  0  0  0  0  0  0  0  0  0
  -29.6415   -4.4033   -7.5185 N   0  0  0  0  0  0  0  0  0  0  0  0
  -29.1610   -3.3179   -6.9638 C   0  0  0  0  0  0  0  0  0  0  0  0
  -28.4977   -3.2611   -5.7721 C   0  0  0  0  0  0  0  0  0  0  0  0
  -28.0941   -4.5215   -5.2461 N   0  0  0  0  0  0  0  0  0  0  0  0
  -28.6465   -5.8684   -5.8836 C   0  0  0  0  0  0  0  0  0  0  0  0
  -28.6711   -7.4687   -6.0026 C   0  0  0  0  0  0  0  0  0  0  0  0
  -28.5062   -1.7897   -5.3037 C   0  0  0  0  0  0  0  0  0  0  0  0
  -27.5651   -0.7275   -5.1352 C   0  0  0  0  0  0  0  0  0  0  0  0
  -28.1036    0.5158   -5.1509 N   0  0  0  0  0  0  0  0  0  0  0  0
  -29.4101    0.3130   -5.3693 N   0  0  0  0  0  0  0  0  0  0  0  0
  -30.3417    1.4087   -5.5989 C   0  0  0  0  0  0  0  0  0  0  0  0
  -29.7002   -1.0260   -5.3912 C   0  0  0  0  0  0  0  0  0  0  0  0
  -28.7446  -10.5350  -10.8134 C   0  0  0  0  0  0  0  0  0  0  0  0
  -27.4050  -10.9233  -10.6923 C   0  0  0  0  0  0  0  0  0  0  0  0
  -26.7984  -10.9354   -9.4460 C   0  0  0  0  0  0  0  0  0  0  0  0
  -27.5449  -10.5221   -8.3332 C   0  0  0  0  0  0  0  0  0  0  0  0
  -28.9087  -10.1220   -8.4238 C   0  0  0  0  0  0  0  0  0  0  0  0
  -29.4971  -10.1770   -9.6827 C   0  0  0  0  0  0  0  0  0  0  0  0
  -28.4252   -9.8130  -13.0409 C   0  0  0  0  0  0  0  0  0  0  0  0
  -29.2136  -10.5328  -12.1019 O   0  0  0  0  0  0  0  0  0  0  0  0
  -25.5049  -11.3038   -9.1847 O   0  0  0  0  0  0  0  0  0  0  0  0
  -25.1600  -11.5177   -7.8181 C   0  0  0  0  0  0  0  0  0  0  0  0
  -29.6908  -10.7437   -6.2229 C   0  0  0  0  0  0  0  0  0  0  0  0
  -28.8251  -10.5236   -5.0521 C   0  0  0  0  0  0  0  0  0  0  0  0
  -27.4794  -10.8085   -4.9700 C   0  0  0  0  0  0  0  0  0  0  0  0
  -27.1218  -10.3747   -3.7449 N   0  0  0  0  0  0  0  0  0  0  0  0
  -28.1711   -9.8623   -3.0760 N   0  0  0  0  0  0  0  0  0  0  0  0
  -29.2248   -9.9379   -3.8803 N   0  0  0  0  0  0  0  0  0  0  0  0
  -25.7791  -10.2580   -3.2668 C   0  0  0  0  0  0  0  0  0  0  0  0
  -25.0591   -9.1614   -4.0276 C   0  0  0  0  0  0  0  0  0  0  0  0
  -25.8157   -7.9592   -3.9852 O   0  0  0  0  0  0  0  0  0  0  0  0
  -26.6142   -8.1011   -4.5233 H   0  0  0  0  0  0  0  0  0  0  0  0
 24 25  1  0  0  0
 25 18  1  0  0  0
 18 19  1  0  0  0
 18 23  2  0  0  0
 19 20  2  0  0  0
 20 26  1  0  0  0
 20 21  1  0  0  0
 26 27  1  0  0  0
 21 22  2  0  0  0
 22  1  1  0  0  0
 22 23  1  0  0  0
  1 28  1  0  0  0
  1  2  1  0  0  0
 28 29  1  0  0  0
 29 30  2  0  0  0
 29 33  1  0  0  0
 30 31  1  0  0  0
 31 34  1  0  0  0
 31 32  1  0  0  0
 34 35  1  0  0  0
 35 36  1  0  0  0
 36 37  1  0  0  0
 32 33  2  0  0  0
  2  3  1  0  0  0
  2 11  2  0  0  0
  3  4  2  0  0  0
  4  5  1  0  0  0
  5  6  1  0  0  0
  5 10  2  0  0  0
  6  7  2  0  0  0
  7  8  1  0  0  0
  8 12  1  0  0  0
  8  9  2  0  0  0
 12 13  1  0  0  0
 12 17  2  0  0  0
 13 14  2  0  0  0
 14 15  1  0  0  0
 15 16  1  0  0  0
 15 17  1  0  0  0
  9 10  1  0  0  0
 10 11  1  0  0  0
M  END
> <minimizedAffinity>
-8.23729

$$$$
