CHEMBL3979299


 36 40  0  0  0  0  0  0  0  0999 V2000
  -28.2278   -2.5314   -8.2246 C   0  0  0  0  0  0  0  0  0  0  0  0
  -28.4172   -3.8981   -8.3764 C   0  0  0  0  0  0  0  0  0  0  0  0
  -28.6945   -4.7337   -7.3021 C   0  0  0  0  0  0  0  0  0  0  0  0
  -28.7444   -4.2669   -5.9857 C   0  0  0  0  0  0  0  0  0  0  0  0
  -28.4316   -2.9032   -5.7836 C   0  0  0  0  0  0  0  0  0  0  0  0
  -28.3216   -2.2891   -4.4082 C   0  0  0  0  0  0  0  0  0  0  0  0
  -28.1852   -2.0463   -6.9078 C   0  0  0  0  0  0  0  0  0  0  0  0
  -29.1008   -5.2543   -4.8595 C   0  0  0  0  0  0  0  0  0  0  0  0
  -30.6192   -5.5886   -4.7639 C   0  0  0  0  0  0  0  0  0  0  0  0
  -30.9824   -6.6380   -5.7524 N   0  0  0  0  0  0  0  0  0  0  0  0
  -30.2291   -7.6798   -5.6440 C   0  0  0  0  0  0  0  0  0  0  0  0
  -30.2722   -8.8310   -6.5214 C   0  0  0  0  0  0  0  0  0  0  0  0
  -30.0787   -8.6617   -7.8864 C   0  0  0  0  0  0  0  0  0  0  0  0
  -29.8642   -9.7894   -8.6686 C   0  0  0  0  0  0  0  0  0  0  0  0
  -29.9561  -11.0633   -8.0937 C   0  0  0  0  0  0  0  0  0  0  0  0
  -30.0574  -11.2112   -6.7049 C   0  0  0  0  0  0  0  0  0  0  0  0
  -30.0444  -10.0620   -5.9259 C   0  0  0  0  0  0  0  0  0  0  0  0
  -29.4465  -10.0587   -4.6433 N   0  0  0  0  0  0  0  0  0  0  0  0
  -28.7035   -8.9337   -4.2720 C   0  0  0  0  0  0  0  0  0  0  0  0
  -27.6984   -9.0519   -3.5757 O   0  0  0  0  0  0  0  0  0  0  0  0
  -29.1635   -7.7275   -4.7801 N   0  0  0  0  0  0  0  0  0  0  0  0
  -28.3116   -6.5740   -4.9995 C   0  0  0  0  0  0  0  0  0  0  0  0
  -29.0772  -10.9322   -4.2891 H   0  0  0  0  0  0  0  0  0  0  0  0
  -27.0650   -0.7782  -11.2642 N   0  0  0  0  0  0  0  0  0  0  0  0
  -26.9612   -1.5911  -10.1471 C   0  0  0  0  0  0  0  0  0  0  0  0
  -25.9527   -2.2515   -9.9173 O   0  0  0  0  0  0  0  0  0  0  0  0
  -28.0996   -1.6419   -9.3404 N   0  0  0  0  0  0  0  0  0  0  0  0
  -27.5994    0.0698  -11.1660 H   0  0  0  0  0  0  0  0  0  0  0  0
  -28.9412   -1.2035   -9.6830 H   0  0  0  0  0  0  0  0  0  0  0  0
  -22.4763    0.3213  -12.9656 C   0  0  0  0  0  0  0  0  0  0  0  0
  -23.8263   -0.3140  -13.1292 C   0  0  0  0  0  0  0  0  0  0  0  0
  -24.0928   -1.0234  -14.3067 C   0  0  0  0  0  0  0  0  0  0  0  0
  -25.3387   -1.5912  -14.5073 C   0  0  0  0  0  0  0  0  0  0  0  0
  -26.3211   -1.4707  -13.5275 C   0  0  0  0  0  0  0  0  0  0  0  0
  -26.0745   -0.8230  -12.3014 C   0  0  0  0  0  0  0  0  0  0  0  0
  -24.8202   -0.2178  -12.1264 C   0  0  0  0  0  0  0  0  0  0  0  0
 30 31  1  0  0  0
 31 32  1  0  0  0
 31 36  2  0  0  0
 32 33  2  0  0  0
 33 34  1  0  0  0
 34 35  2  0  0  0
 35 24  1  0  0  0
 35 36  1  0  0  0
 24 25  1  0  0  0
 24 28  1  0  0  0
 25 26  2  0  0  0
 25 27  1  0  0  0
 27  1  1  0  0  0
 27 29  1  0  0  0
  1  2  1  0  0  0
  1  7  2  0  0  0
  2  3  2  0  0  0
  3  4  1  0  0  0
  4  8  1  0  0  0
  4  5  2  0  0  0
  8  9  1  0  0  0
  8 22  1  0  0  0
  9 10  1  0  0  0
 10 11  2  0  0  0
 11 12  1  0  0  0
 11 21  1  0  0  0
 12 13  1  0  0  0
 12 17  2  0  0  0
 13 14  2  0  0  0
 14 15  1  0  0  0
 15 16  2  0  0  0
 16 17  1  0  0  0
 17 18  1  0  0  0
 18 19  1  0  0  0
 18 23  1  0  0  0
 19 20  2  0  0  0
 19 21  1  0  0  0
 21 22  1  0  0  0
  5  6  1  0  0  0
  5  7  1  0  0  0
M  END
> <minimizedAffinity>
-11.07340

$$$$
