CHEMBL4086939


 40 44  0  0  0  0  0  0  0  0999 V2000
  -27.6387   -2.5356   -8.8759 C   0  0  0  0  0  0  0  0  0  0  0  0
  -28.0543   -2.1366   -7.5848 C   0  0  0  0  0  0  0  0  0  0  0  0
  -28.4752   -3.0821   -6.6266 C   0  0  0  0  0  0  0  0  0  0  0  0
  -28.4902   -4.4219   -6.9759 C   0  0  0  0  0  0  0  0  0  0  0  0
  -28.0518   -4.7852   -8.2574 C   0  0  0  0  0  0  0  0  0  0  0  0
  -27.6169   -3.8919   -9.2080 C   0  0  0  0  0  0  0  0  0  0  0  0
  -28.1706   -6.1570   -8.4505 N   0  0  0  0  0  0  0  0  0  0  0  0
  -28.7621   -6.7680   -7.3662 C   0  0  0  0  0  0  0  0  0  0  0  0
  -29.2005   -7.9040   -7.3750 O   0  0  0  0  0  0  0  0  0  0  0  0
  -28.8800   -5.6843   -6.3059 C   0  0  0  0  0  0  0  0  0  0  0  0
  -29.3261   -5.9700   -5.0620 C   0  0  0  0  0  0  0  0  0  0  0  0
  -28.0247   -6.6438   -9.3196 H   0  0  0  0  0  0  0  0  0  0  0  0
  -29.7536   -4.8954   -4.1407 C   0  0  0  0  0  0  0  0  0  0  0  0
  -28.7855   -4.0952   -3.5130 C   0  0  0  0  0  0  0  0  0  0  0  0
  -29.1725   -3.0471   -2.6747 C   0  0  0  0  0  0  0  0  0  0  0  0
  -30.5244   -2.7918   -2.4554 C   0  0  0  0  0  0  0  0  0  0  0  0
  -31.4938   -3.5789   -3.0762 C   0  0  0  0  0  0  0  0  0  0  0  0
  -31.1091   -4.6244   -3.9212 C   0  0  0  0  0  0  0  0  0  0  0  0
  -27.2634   -1.5767   -9.9501 C   0  0  0  0  0  0  0  0  0  0  0  0
  -28.0865   -0.9635  -10.6155 O   0  0  0  0  0  0  0  0  0  0  0  0
  -25.4353   -1.5018  -11.3911 C   0  0  0  0  0  0  0  0  0  0  0  0
  -25.9180   -1.4535  -10.0471 O   0  0  0  0  0  0  0  0  0  0  0  0
  -29.5037   -7.2440   -4.5407 N   0  0  0  0  0  0  0  0  0  0  0  0
  -30.4343   -7.4852   -4.2207 H   0  0  0  0  0  0  0  0  0  0  0  0
  -28.4818   -8.1465   -4.1801 C   0  0  0  0  0  0  0  0  0  0  0  0
  -27.1226   -7.8330   -4.3048 C   0  0  0  0  0  0  0  0  0  0  0  0
  -26.1314   -8.7983   -4.0774 C   0  0  0  0  0  0  0  0  0  0  0  0
  -26.4797  -10.1186   -3.7604 C   0  0  0  0  0  0  0  0  0  0  0  0
  -27.8369  -10.4263   -3.6072 C   0  0  0  0  0  0  0  0  0  0  0  0
  -28.8225   -9.4493   -3.8017 C   0  0  0  0  0  0  0  0  0  0  0  0
  -25.4367  -11.2091   -3.6848 C   0  0  0  0  0  0  0  0  0  0  0  0
  -24.4718  -11.1847   -4.7812 N   0  0  0  0  0  0  0  0  0  0  0  0
  -23.1628  -10.7799   -4.6128 C   0  0  0  0  0  0  0  0  0  0  0  0
  -22.5570  -10.7268   -5.8448 C   0  0  0  0  0  0  0  0  0  0  0  0
  -23.5253  -11.1041   -6.7966 C   0  0  0  0  0  0  0  0  0  0  0  0
  -24.7100  -11.3821   -6.1303 C   0  0  0  0  0  0  0  0  0  0  0  0
  -25.9951  -11.8616   -6.7390 C   0  0  0  0  0  0  0  0  0  0  0  0
  -26.9163  -10.7955   -7.1636 N   0  0  0  0  0  0  0  0  0  0  0  0
  -26.6184  -10.2921   -8.5081 C   0  0  0  0  0  0  0  0  0  0  0  0
  -28.2894  -11.3211   -7.1544 C   0  0  0  0  0  0  0  0  0  0  0  0
 21 22  1  0  0  0
 22 19  1  0  0  0
 19 20  2  0  0  0
 19  1  1  0  0  0
  1  2  1  0  0  0
  1  6  2  0  0  0
  2  3  2  0  0  0
  3  4  1  0  0  0
  4  5  2  0  0  0
  4 10  1  0  0  0
  5  6  1  0  0  0
  5  7  1  0  0  0
  7  8  1  0  0  0
  7 12  1  0  0  0
  8  9  2  0  0  0
  8 10  1  0  0  0
 10 11  2  0  0  0
 11 23  1  0  0  0
 11 13  1  0  0  0
 23 25  1  0  0  0
 23 24  1  0  0  0
 25 26  1  0  0  0
 25 30  2  0  0  0
 26 27  2  0  0  0
 27 28  1  0  0  0
 28 31  1  0  0  0
 28 29  2  0  0  0
 31 32  1  0  0  0
 32 33  1  0  0  0
 32 36  1  0  0  0
 33 34  2  0  0  0
 34 35  1  0  0  0
 35 36  2  0  0  0
 36 37  1  0  0  0
 37 38  1  0  0  0
 38 39  1  0  0  0
 38 40  1  0  0  0
 29 30  1  0  0  0
 13 14  1  0  0  0
 13 18  2  0  0  0
 14 15  2  0  0  0
 15 16  1  0  0  0
 16 17  2  0  0  0
 17 18  1  0  0  0
M  END
> <minimizedAffinity>
-7.91848

$$$$
