CHEMBL3901420


 39 42  0  0  0  0  0  0  0  0999 V2000
  -29.3317   -3.9131   -6.9359 N   0  0  0  0  0  0  0  0  0  0  0  0
  -28.3578   -3.2707   -7.7844 C   0  0  0  0  0  0  0  0  0  0  0  0
  -28.3690   -1.9179   -7.7167 C   0  0  0  0  0  0  0  0  0  0  0  0
  -28.0628   -1.1643   -8.8292 C   0  0  0  0  0  0  0  0  0  0  0  0
  -27.5431   -1.6847   -9.9663 C   0  0  0  0  0  0  0  0  0  0  0  0
  -27.6793   -0.7760  -10.9178 N   0  0  0  0  0  0  0  0  0  0  0  0
  -26.9082   -0.8663  -11.9863 C   0  0  0  0  0  0  0  0  0  0  0  0
  -25.8829   -1.7669  -12.1074 C   0  0  0  0  0  0  0  0  0  0  0  0
  -25.9138   -2.8823  -11.2284 N   0  0  0  0  0  0  0  0  0  0  0  0
  -26.9004   -2.9069  -10.0584 C   0  0  0  0  0  0  0  0  0  0  0  0
  -27.5177   -3.7908   -8.8931 C   0  0  0  0  0  0  0  0  0  0  0  0
  -24.8498   -1.2100  -13.0985 C   0  0  0  0  0  0  0  0  0  0  0  0
  -24.7774   -0.9485  -14.4942 C   0  0  0  0  0  0  0  0  0  0  0  0
  -23.7580   -0.1356  -14.8610 N   0  0  0  0  0  0  0  0  0  0  0  0
  -23.1338    0.1928  -13.7075 N   0  0  0  0  0  0  0  0  0  0  0  0
  -23.7247   -0.4633  -12.6512 C   0  0  0  0  0  0  0  0  0  0  0  0
  -21.9646    1.1037  -13.7257 C   0  0  0  0  0  0  0  0  0  0  0  0
  -20.7765    0.7612  -14.6576 C   0  0  0  0  0  0  0  0  0  0  0  0
  -22.3688    2.5566  -14.0073 C   0  0  0  0  0  0  0  0  0  0  0  0
  -28.9923   -7.3776   -5.4954 C   0  0  0  0  0  0  0  0  0  0  0  0
  -30.0984   -8.0215   -6.0470 C   0  0  0  0  0  0  0  0  0  0  0  0
  -30.9175   -7.3363   -6.9464 C   0  0  0  0  0  0  0  0  0  0  0  0
  -30.6580   -5.9800   -7.2505 C   0  0  0  0  0  0  0  0  0  0  0  0
  -29.5871   -5.2822   -6.6698 C   0  0  0  0  0  0  0  0  0  0  0  0
  -28.7367   -6.0334   -5.8306 C   0  0  0  0  0  0  0  0  0  0  0  0
  -25.9901   -9.0761   -3.8937 C   0  0  0  0  0  0  0  0  0  0  0  0
  -26.8137   -8.3492   -4.8188 N   0  0  0  0  0  0  0  0  0  0  0  0
  -28.1276   -8.0249   -4.4644 C   0  0  0  0  0  0  0  0  0  0  0  0
  -28.6002   -8.2954   -3.3669 O   0  0  0  0  0  0  0  0  0  0  0  0
  -26.4142   -7.9720   -5.6496 H   0  0  0  0  0  0  0  0  0  0  0  0
  -32.0087   -7.8905   -7.5702 O   0  0  0  0  0  0  0  0  0  0  0  0
  -32.2209   -9.2893   -7.3756 C   0  0  0  0  0  0  0  0  0  0  0  0
  -30.1549   -2.9115   -6.1093 C   0  0  0  0  0  0  0  0  0  0  0  0
  -29.7297   -2.5446   -4.6352 C   0  0  0  0  0  0  0  0  0  0  0  0
  -29.4102   -1.1675   -4.2191 N   0  0  0  0  0  0  0  0  0  0  0  0
  -28.6177   -1.1803   -3.5784 H   0  0  0  0  0  0  0  0  0  0  0  0
  -29.2197   -0.1523   -5.2610 C   0  0  0  0  0  0  0  0  0  0  0  0
  -30.3842    0.8238   -5.4543 C   0  0  0  0  0  0  0  0  0  0  0  0
  -27.9550    0.6576   -4.9321 C   0  0  0  0  0  0  0  0  0  0  0  0
 26 27  1  0  0  0
 27 28  1  0  0  0
 27 30  1  0  0  0
 28 29  2  0  0  0
 28 20  1  0  0  0
 20 21  1  0  0  0
 20 25  2  0  0  0
 21 22  2  0  0  0
 22 31  1  0  0  0
 22 23  1  0  0  0
 31 32  1  0  0  0
 23 24  2  0  0  0
 24  1  1  0  0  0
 24 25  1  0  0  0
  1 33  1  0  0  0
  1  2  1  0  0  0
 33 34  1  0  0  0
 34 35  1  0  0  0
 35 37  1  0  0  0
 35 36  1  0  0  0
 37 38  1  0  0  0
 37 39  1  0  0  0
  2  3  1  0  0  0
  2 11  2  0  0  0
  3  4  2  0  0  0
  4  5  1  0  0  0
  5  6  1  0  0  0
  5 10  2  0  0  0
  6  7  2  0  0  0
  7  8  1  0  0  0
  8 12  1  0  0  0
  8  9  2  0  0  0
 12 13  1  0  0  0
 12 16  2  0  0  0
 13 14  2  0  0  0
 14 15  1  0  0  0
 15 17  1  0  0  0
 15 16  1  0  0  0
 17 18  1  0  0  0
 17 19  1  0  0  0
  9 10  1  0  0  0
 10 11  1  0  0  0
M  END
> <minimizedAffinity>
-7.61744

$$$$
