CHEMBL4103383


 35 40  0  0  0  0  0  0  0  0999 V2000
  -27.6372   -1.3332  -11.7614 O   0  0  0  0  0  0  0  0  0  0  0  0
  -27.1344   -1.6405  -10.6916 C   0  0  0  0  0  0  0  0  0  0  0  0
  -25.8167   -1.7210  -10.3045 N   0  0  0  0  0  0  0  0  0  0  0  0
  -27.9572   -2.1712   -9.6830 N   0  0  0  0  0  0  0  0  0  0  0  0
  -28.9902   -3.0652   -9.9035 C   0  0  0  0  0  0  0  0  0  0  0  0
  -29.4797   -3.4865   -8.6870 C   0  0  0  0  0  0  0  0  0  0  0  0
  -28.8054   -2.7513   -7.6708 C   0  0  0  0  0  0  0  0  0  0  0  0
  -28.9084   -2.7113   -6.2669 C   0  0  0  0  0  0  0  0  0  0  0  0
  -28.1118   -1.8033   -5.5581 C   0  0  0  0  0  0  0  0  0  0  0  0
  -27.2163   -0.9681   -6.2132 C   0  0  0  0  0  0  0  0  0  0  0  0
  -27.1011   -0.9947   -7.5988 C   0  0  0  0  0  0  0  0  0  0  0  0
  -27.8771   -1.9226   -8.3126 C   0  0  0  0  0  0  0  0  0  0  0  0
  -25.5692   -2.3009   -9.5129 H   0  0  0  0  0  0  0  0  0  0  0  0
  -24.7858   -1.2976  -11.1115 C   0  0  0  0  0  0  0  0  0  0  0  0
  -24.9503   -0.3803  -12.1706 C   0  0  0  0  0  0  0  0  0  0  0  0
  -23.6795   -0.1961  -12.6641 C   0  0  0  0  0  0  0  0  0  0  0  0
  -22.8221   -1.0039  -11.9913 O   0  0  0  0  0  0  0  0  0  0  0  0
  -23.5140   -1.6901  -11.0145 N   0  0  0  0  0  0  0  0  0  0  0  0
  -23.0898    0.7074  -13.6913 C   0  0  0  0  0  0  0  0  0  0  0  0
  -21.7021    0.1988  -14.1061 C   0  0  0  0  0  0  0  0  0  0  0  0
  -20.9807    1.2109  -14.9792 C   0  0  0  0  0  0  0  0  0  0  0  0
  -20.9221    2.4772  -14.3268 O   0  0  0  0  0  0  0  0  0  0  0  0
  -22.2196    3.0305  -14.1182 C   0  0  0  0  0  0  0  0  0  0  0  0
  -23.0260    2.1499  -13.1774 C   0  0  0  0  0  0  0  0  0  0  0  0
  -28.1833   -1.8659   -4.1919 O   0  0  0  0  0  0  0  0  0  0  0  0
  -29.0718   -2.7537   -3.5971 C   0  0  0  0  0  0  0  0  0  0  0  0
  -30.3308   -2.3932   -3.2706 N   0  0  0  0  0  0  0  0  0  0  0  0
  -31.1696   -3.3952   -2.9336 C   0  0  0  0  0  0  0  0  0  0  0  0
  -30.8951   -4.7109   -2.9624 N   0  0  0  0  0  0  0  0  0  0  0  0
  -29.6317   -4.9877   -3.3030 C   0  0  0  0  0  0  0  0  0  0  0  0
  -28.6656   -4.0492   -3.5643 C   0  0  0  0  0  0  0  0  0  0  0  0
  -27.4072   -4.7106   -3.9645 C   0  0  0  0  0  0  0  0  0  0  0  0
  -27.8707   -5.9882   -4.5599 N   0  0  0  0  0  0  0  0  0  0  0  0
  -29.0994   -6.3227   -3.7652 C   0  0  0  0  0  0  0  0  0  0  0  0
  -28.2022   -5.7463   -5.4990 H   0  0  0  0  0  0  0  0  0  0  0  0
  1  2  2  0  0  0
  2  3  1  0  0  0
  2  4  1  0  0  0
  3 14  1  0  0  0
  3 13  1  0  0  0
 14 15  1  0  0  0
 14 18  2  0  0  0
 15 16  2  0  0  0
 16 19  1  0  0  0
 16 17  1  0  0  0
 19 20  1  0  0  0
 19 24  1  0  0  0
 20 21  1  0  0  0
 21 22  1  0  0  0
 22 23  1  0  0  0
 23 24  1  0  0  0
 17 18  1  0  0  0
  4  5  1  0  0  0
  4 12  1  0  0  0
  5  6  2  0  0  0
  6  7  1  0  0  0
  7  8  1  0  0  0
  7 12  2  0  0  0
  8  9  2  0  0  0
  9 25  1  0  0  0
  9 10  1  0  0  0
 25 26  1  0  0  0
 26 27  1  0  0  0
 26 31  2  0  0  0
 27 28  2  0  0  0
 28 29  1  0  0  0
 29 30  2  0  0  0
 30 31  1  0  0  0
 30 34  1  0  0  0
 31 32  1  0  0  0
 32 33  1  0  0  0
 33 34  1  0  0  0
 33 35  1  0  0  0
 10 11  2  0  0  0
 11 12  1  0  0  0
M  END
> <minimizedAffinity>
-6.65501

$$$$
