CHEMBL215658


 26 30  0  0  0  0  0  0  0  0999 V2000
  -29.9643   -7.8997   -7.0900 C   0  0  0  0  0  0  0  0  0  0  0  0
  -29.8666   -8.0884   -5.6854 C   0  0  0  0  0  0  0  0  0  0  0  0
  -29.8255   -7.0150   -4.7961 C   0  0  0  0  0  0  0  0  0  0  0  0
  -29.8335   -5.7579   -5.3435 C   0  0  0  0  0  0  0  0  0  0  0  0
  -29.8770   -5.5252   -6.7447 C   0  0  0  0  0  0  0  0  0  0  0  0
  -29.9681   -6.5970   -7.6221 C   0  0  0  0  0  0  0  0  0  0  0  0
  -29.7828   -4.0252   -7.1054 C   0  0  0  0  0  0  0  0  0  0  0  0
  -29.7043   -3.4941   -5.7116 C   0  0  0  0  0  0  0  0  0  0  0  0
  -29.5372   -2.3036   -4.9875 C   0  0  0  0  0  0  0  0  0  0  0  0
  -29.5435   -2.5454   -3.6568 N   0  0  0  0  0  0  0  0  0  0  0  0
  -29.6846   -3.8896   -3.5506 N   0  0  0  0  0  0  0  0  0  0  0  0
  -29.7556   -4.4711   -4.7578 C   0  0  0  0  0  0  0  0  0  0  0  0
  -29.7132   -4.3093   -2.6276 H   0  0  0  0  0  0  0  0  0  0  0  0
  -29.3431   -0.9268   -5.5255 C   0  0  0  0  0  0  0  0  0  0  0  0
  -30.2551    0.1005   -5.3883 C   0  0  0  0  0  0  0  0  0  0  0  0
  -29.8843    1.3139   -5.9441 N   0  0  0  0  0  0  0  0  0  0  0  0
  -28.6970    1.1828   -6.4926 C   0  0  0  0  0  0  0  0  0  0  0  0
  -27.9698   -0.3663   -6.3752 S   0  0  0  0  0  0  0  0  0  0  0  0
  -30.0639   -9.1141   -8.0002 C   0  0  0  0  0  0  0  0  0  0  0  0
  -27.2209   -9.6340  -11.8233 C   0  0  0  0  0  0  0  0  0  0  0  0
  -27.4396  -10.1098  -10.4602 N   0  0  0  0  0  0  0  0  0  0  0  0
  -27.3193   -9.0068   -9.4931 C   0  0  0  0  0  0  0  0  0  0  0  0
  -27.6135   -9.4800   -8.0513 C   0  0  0  0  0  0  0  0  0  0  0  0
  -28.9550  -10.0764   -7.8655 N   0  0  0  0  0  0  0  0  0  0  0  0
  -29.0874  -11.1683   -8.8621 C   0  0  0  0  0  0  0  0  0  0  0  0
  -28.7510  -10.7717  -10.3266 C   0  0  0  0  0  0  0  0  0  0  0  0
 20 21  1  0  0  0
 21 22  1  0  0  0
 21 26  1  0  0  0
 22 23  1  0  0  0
 23 24  1  0  0  0
 24 19  1  0  0  0
 24 25  1  0  0  0
 19  1  1  0  0  0
  1  2  1  0  0  0
  1  6  2  0  0  0
  2  3  2  0  0  0
  3  4  1  0  0  0
  4  5  2  0  0  0
  4 12  1  0  0  0
  5  6  1  0  0  0
  5  7  1  0  0  0
  7  8  1  0  0  0
  8  9  1  0  0  0
  8 12  2  0  0  0
  9 14  1  0  0  0
  9 10  2  0  0  0
 14 15  2  0  0  0
 14 18  1  0  0  0
 15 16  1  0  0  0
 16 17  2  0  0  0
 17 18  1  0  0  0
 10 11  1  0  0  0
 11 12  1  0  0  0
 11 13  1  0  0  0
 25 26  1  0  0  0
M  END
> <minimizedAffinity>
-8.02976

$$$$
