CHEMBL3933897


 34 37  0  0  0  0  0  0  0  0999 V2000
  -29.3291   -8.1545   -6.6926 C   0  0  0  0  0  0  0  0  0  0  0  0
  -28.9830   -8.2075   -8.0529 C   0  0  0  0  0  0  0  0  0  0  0  0
  -28.0376   -9.0786   -8.5512 C   0  0  0  0  0  0  0  0  0  0  0  0
  -27.7336   -8.9986   -9.8494 N   0  0  0  0  0  0  0  0  0  0  0  0
  -26.8387   -9.8733  -10.3077 C   0  0  0  0  0  0  0  0  0  0  0  0
  -26.2920  -10.8595   -9.6025 N   0  0  0  0  0  0  0  0  0  0  0  0
  -26.6393  -10.9565   -8.3048 C   0  0  0  0  0  0  0  0  0  0  0  0
  -27.4723  -10.0074   -7.6855 C   0  0  0  0  0  0  0  0  0  0  0  0
  -27.7878   -9.9633   -6.3075 C   0  0  0  0  0  0  0  0  0  0  0  0
  -28.7016   -9.0331   -5.8013 C   0  0  0  0  0  0  0  0  0  0  0  0
  -26.2040  -12.0839   -7.5551 N   0  0  0  0  0  0  0  0  0  0  0  0
  -26.1869  -12.8856   -8.1791 H   0  0  0  0  0  0  0  0  0  0  0  0
  -25.0448  -12.0326   -6.7440 C   0  0  0  0  0  0  0  0  0  0  0  0
  -25.1256  -12.4434   -5.4072 C   0  0  0  0  0  0  0  0  0  0  0  0
  -24.0457  -12.2750   -4.5433 C   0  0  0  0  0  0  0  0  0  0  0  0
  -22.8664  -11.6966   -5.0126 C   0  0  0  0  0  0  0  0  0  0  0  0
  -21.5877  -11.4597   -3.8762 Cl  0  0  0  0  0  0  0  0  0  0  0  0
  -22.7628  -11.3113   -6.3544 C   0  0  0  0  0  0  0  0  0  0  0  0
  -21.3326  -10.5842   -6.9996 Cl  0  0  0  0  0  0  0  0  0  0  0  0
  -23.8514  -11.4827   -7.2188 C   0  0  0  0  0  0  0  0  0  0  0  0
  -28.9925   -9.2285   -4.4792 O   0  0  0  0  0  0  0  0  0  0  0  0
  -28.0716   -9.9574   -3.6787 C   0  0  0  0  0  0  0  0  0  0  0  0
  -30.3102   -7.3254   -6.2224 O   0  0  0  0  0  0  0  0  0  0  0  0
  -29.9381   -5.9856   -5.8548 C   0  0  0  0  0  0  0  0  0  0  0  0
  -30.1269   -3.2379   -4.0810 N   0  0  0  0  0  0  0  0  0  0  0  0
  -28.7949   -3.3557   -3.4518 C   0  0  0  0  0  0  0  0  0  0  0  0
  -28.0167   -4.6116   -3.8826 C   0  0  0  0  0  0  0  0  0  0  0  0
  -28.7724   -5.8142   -3.6882 O   0  0  0  0  0  0  0  0  0  0  0  0
  -30.0658   -5.7829   -4.3305 C   0  0  0  0  0  0  0  0  0  0  0  0
  -30.8377   -4.5139   -3.8972 C   0  0  0  0  0  0  0  0  0  0  0  0
  -30.0139   -2.8124   -5.4706 C   0  0  0  0  0  0  0  0  0  0  0  0
  -28.6412    1.2885   -5.8796 C   0  0  0  0  0  0  0  0  0  0  0  0
  -29.1215   -0.1466   -5.7365 C   0  0  0  0  0  0  0  0  0  0  0  0
  -29.5336   -1.3774   -5.6137 C   0  0  0  0  0  0  0  0  0  0  0  0
 32 33  1  0  0  0
 33 34  3  0  0  0
 34 31  1  0  0  0
 31 25  1  0  0  0
 25 26  1  0  0  0
 25 30  1  0  0  0
 26 27  1  0  0  0
 27 28  1  0  0  0
 28 29  1  0  0  0
 29 24  1  0  0  0
 29 30  1  0  0  0
 24 23  1  0  0  0
 23  1  1  0  0  0
  1  2  1  0  0  0
  1 10  2  0  0  0
  2  3  2  0  0  0
  3  4  1  0  0  0
  3  8  1  0  0  0
  4  5  2  0  0  0
  5  6  1  0  0  0
  6  7  2  0  0  0
  7 11  1  0  0  0
  7  8  1  0  0  0
 11 13  1  0  0  0
 11 12  1  0  0  0
 13 14  1  0  0  0
 13 20  2  0  0  0
 14 15  2  0  0  0
 15 16  1  0  0  0
 16 17  1  0  0  0
 16 18  2  0  0  0
 18 19  1  0  0  0
 18 20  1  0  0  0
  8  9  2  0  0  0
  9 10  1  0  0  0
 10 21  1  0  0  0
 21 22  1  0  0  0
M  END
> <minimizedAffinity>
-7.84155

$$$$
