CHEMBL1230020


 29 31  0  0  0  0  0  0  0  0999 V2000
  -20.4175    1.8703  -15.1719 C   0  0  0  0  0  0  0  0  0  0  0  0
  -20.9551    3.1448  -15.0097 C   0  0  0  0  0  0  0  0  0  0  0  0
  -22.1230    3.3075  -14.2677 C   0  0  0  0  0  0  0  0  0  0  0  0
  -22.7390    2.2014  -13.6795 C   0  0  0  0  0  0  0  0  0  0  0  0
  -23.8191    2.4340  -12.9214 F   0  0  0  0  0  0  0  0  0  0  0  0
  -22.2356    0.9103  -13.8504 C   0  0  0  0  0  0  0  0  0  0  0  0
  -21.0522    0.7591  -14.5863 C   0  0  0  0  0  0  0  0  0  0  0  0
  -20.5145   -0.4539  -14.7864 F   0  0  0  0  0  0  0  0  0  0  0  0
  -19.1695    1.7316  -15.8794 N   0  0  0  0  0  0  0  0  0  0  0  0
  -18.9473    0.7496  -16.0831 H   0  0  0  0  0  0  0  0  0  0  0  0
  -17.7945    2.3615  -15.0874 S   0  0  0  0  0  0  0  0  0  0  0  0
  -18.0826    2.2259  -13.6768 O   0  0  0  0  0  0  0  0  0  0  0  0
  -17.4317    3.6294  -15.6813 O   0  0  0  0  0  0  0  0  0  0  0  0
  -16.5362    1.1473  -15.5143 C   0  0  0  0  0  0  0  0  0  0  0  0
  -15.0064    0.6434  -13.5528 C   0  0  0  0  0  0  0  0  0  0  0  0
  -16.2494    0.2289  -14.3258 C   0  0  0  0  0  0  0  0  0  0  0  0
  -22.8891   -0.2648  -13.2147 C   0  0  0  0  0  0  0  0  0  0  0  0
  -22.3329   -0.8001  -12.2598 O   0  0  0  0  0  0  0  0  0  0  0  0
  -24.1825   -0.7578  -13.7055 C   0  0  0  0  0  0  0  0  0  0  0  0
  -24.5505   -0.9630  -15.0307 C   0  0  0  0  0  0  0  0  0  0  0  0
  -25.8492   -1.4014  -15.0640 N   0  0  0  0  0  0  0  0  0  0  0  0
  -26.3251   -1.5396  -13.7933 C   0  0  0  0  0  0  0  0  0  0  0  0
  -27.5661   -1.9708  -13.4990 N   0  0  0  0  0  0  0  0  0  0  0  0
  -27.7999   -2.0230  -12.1648 C   0  0  0  0  0  0  0  0  0  0  0  0
  -26.8919   -1.6721  -11.1744 C   0  0  0  0  0  0  0  0  0  0  0  0
  -27.3311   -1.7838   -9.5158 Cl  0  0  0  0  0  0  0  0  0  0  0  0
  -25.6188   -1.2246  -11.5368 C   0  0  0  0  0  0  0  0  0  0  0  0
  -25.3165   -1.1586  -12.9119 C   0  0  0  0  0  0  0  0  0  0  0  0
  -26.3999   -1.6032  -15.8871 H   0  0  0  0  0  0  0  0  0  0  0  0
 15 16  1  0  0  0
 16 14  1  0  0  0
 14 11  1  0  0  0
 11 12  2  0  0  0
 11 13  2  0  0  0
 11  9  1  0  0  0
  9  1  1  0  0  0
  9 10  1  0  0  0
  1  2  1  0  0  0
  1  7  2  0  0  0
  2  3  2  0  0  0
  3  4  1  0  0  0
  4  5  1  0  0  0
  4  6  2  0  0  0
  6 17  1  0  0  0
  6  7  1  0  0  0
 17 18  2  0  0  0
 17 19  1  0  0  0
 19 20  2  0  0  0
 19 28  1  0  0  0
 20 21  1  0  0  0
 21 22  1  0  0  0
 21 29  1  0  0  0
 22 23  1  0  0  0
 22 28  2  0  0  0
 23 24  2  0  0  0
 24 25  1  0  0  0
 25 26  1  0  0  0
 25 27  2  0  0  0
 27 28  1  0  0  0
  7  8  1  0  0  0
M  END
> <minimizedAffinity>
-8.03765

$$$$
