CHEMBL271386


 35 38  0  0  0  0  0  0  0  0999 V2000
  -22.7408   -0.4567  -13.5165 C   0  0  0  0  0  0  0  0  0  0  0  0
  -23.9594   -0.6488  -14.1799 C   0  0  0  0  0  0  0  0  0  0  0  0
  -25.0589   -1.2423  -13.5505 C   0  0  0  0  0  0  0  0  0  0  0  0
  -24.9672   -1.7245  -12.2465 C   0  0  0  0  0  0  0  0  0  0  0  0
  -23.7562   -1.5790  -11.5801 C   0  0  0  0  0  0  0  0  0  0  0  0
  -22.6842   -0.9021  -12.1880 C   0  0  0  0  0  0  0  0  0  0  0  0
  -23.3706    2.8939  -13.1744 N   0  0  0  0  0  0  0  0  0  0  0  0
  -22.2529    2.8471  -13.9271 C   0  0  0  0  0  0  0  0  0  0  0  0
  -21.6865    3.9571  -14.4044 N   0  0  0  0  0  0  0  0  0  0  0  0
  -20.5583    3.5483  -15.0754 O   0  0  0  0  0  0  0  0  0  0  0  0
  -20.4591    2.1972  -15.0186 C   0  0  0  0  0  0  0  0  0  0  0  0
  -19.4212    1.4672  -15.5922 C   0  0  0  0  0  0  0  0  0  0  0  0
  -19.4811    0.0891  -15.4431 C   0  0  0  0  0  0  0  0  0  0  0  0
  -20.5534   -0.5001  -14.7718 C   0  0  0  0  0  0  0  0  0  0  0  0
  -21.6207    0.2472  -14.1909 C   0  0  0  0  0  0  0  0  0  0  0  0
  -21.5363    1.6657  -14.3153 C   0  0  0  0  0  0  0  0  0  0  0  0
  -23.6980    3.8160  -12.9055 H   0  0  0  0  0  0  0  0  0  0  0  0
  -23.5258    2.1914  -12.4595 H   0  0  0  0  0  0  0  0  0  0  0  0
  -26.0494   -2.3195  -11.5569 N   0  0  0  0  0  0  0  0  0  0  0  0
  -26.4810   -1.9786  -10.2949 C   0  0  0  0  0  0  0  0  0  0  0  0
  -26.0608   -1.0286   -9.6333 O   0  0  0  0  0  0  0  0  0  0  0  0
  -27.4309   -2.8613   -9.8005 N   0  0  0  0  0  0  0  0  0  0  0  0
  -26.5838   -3.0188  -12.0503 H   0  0  0  0  0  0  0  0  0  0  0  0
  -27.2604   -3.8299  -10.0382 H   0  0  0  0  0  0  0  0  0  0  0  0
  -27.9362   -2.6493   -8.4908 C   0  0  0  0  0  0  0  0  0  0  0  0
  -27.9883   -1.3669   -7.9288 C   0  0  0  0  0  0  0  0  0  0  0  0
  -28.3977   -1.1812   -6.5996 C   0  0  0  0  0  0  0  0  0  0  0  0
  -28.7422   -2.3081   -5.8343 C   0  0  0  0  0  0  0  0  0  0  0  0
  -28.7077   -3.5874   -6.3977 C   0  0  0  0  0  0  0  0  0  0  0  0
  -28.3276   -3.7466   -7.7264 C   0  0  0  0  0  0  0  0  0  0  0  0
  -28.2652   -4.9800   -8.2509 F   0  0  0  0  0  0  0  0  0  0  0  0
  -28.4667    0.2026   -5.9980 C   0  0  0  0  0  0  0  0  0  0  0  0
  -28.3011    1.2069   -6.9026 F   0  0  0  0  0  0  0  0  0  0  0  0
  -29.6689    0.4382   -5.4012 F   0  0  0  0  0  0  0  0  0  0  0  0
  -27.5270    0.4048   -5.0341 F   0  0  0  0  0  0  0  0  0  0  0  0
  7  8  1  0  0  0
  7 17  1  0  0  0
  7 18  1  0  0  0
  8  9  2  0  0  0
  8 16  1  0  0  0
  9 10  1  0  0  0
 10 11  1  0  0  0
 11 12  1  0  0  0
 11 16  2  0  0  0
 12 13  2  0  0  0
 13 14  1  0  0  0
 14 15  2  0  0  0
 15  1  1  0  0  0
 15 16  1  0  0  0
  1  2  1  0  0  0
  1  6  2  0  0  0
  2  3  2  0  0  0
  3  4  1  0  0  0
  4 19  1  0  0  0
  4  5  2  0  0  0
 19 20  1  0  0  0
 19 23  1  0  0  0
 20 21  2  0  0  0
 20 22  1  0  0  0
 22 25  1  0  0  0
 22 24  1  0  0  0
 25 26  1  0  0  0
 25 30  2  0  0  0
 26 27  2  0  0  0
 27 32  1  0  0  0
 27 28  1  0  0  0
 32 33  1  0  0  0
 32 34  1  0  0  0
 32 35  1  0  0  0
 28 29  2  0  0  0
 29 30  1  0  0  0
 30 31  1  0  0  0
  5  6  1  0  0  0
M  END
> <minimizedAffinity>
-11.22696

$$$$
