CHEMBL1336


 35 37  0  0  0  0  0  0  0  0999 V2000
  -28.8903   -5.6426   -4.6000 C   0  0  0  0  0  0  0  0  0  0  0  0
  -29.6182   -5.7305   -5.7822 C   0  0  0  0  0  0  0  0  0  0  0  0
  -29.4829   -4.7482   -6.7655 C   0  0  0  0  0  0  0  0  0  0  0  0
  -28.6203   -3.6586   -6.5837 C   0  0  0  0  0  0  0  0  0  0  0  0
  -27.9244   -3.5568   -5.3745 C   0  0  0  0  0  0  0  0  0  0  0  0
  -28.0785   -4.5293   -4.3768 C   0  0  0  0  0  0  0  0  0  0  0  0
  -28.3885   -2.6760   -7.5670 N   0  0  0  0  0  0  0  0  0  0  0  0
  -27.7943   -2.8769   -8.8010 C   0  0  0  0  0  0  0  0  0  0  0  0
  -27.4949   -3.9683   -9.2716 O   0  0  0  0  0  0  0  0  0  0  0  0
  -27.5263   -1.6733   -9.4421 N   0  0  0  0  0  0  0  0  0  0  0  0
  -28.7931   -1.7639   -7.4073 H   0  0  0  0  0  0  0  0  0  0  0  0
  -27.3014   -0.9126   -8.8179 H   0  0  0  0  0  0  0  0  0  0  0  0
  -26.9053   -1.6540  -10.7103 C   0  0  0  0  0  0  0  0  0  0  0  0
  -27.7010   -1.7053  -11.8499 C   0  0  0  0  0  0  0  0  0  0  0  0
  -27.1104   -1.5947  -13.1092 C   0  0  0  0  0  0  0  0  0  0  0  0
  -25.7214   -1.4737  -13.2477 C   0  0  0  0  0  0  0  0  0  0  0  0
  -25.1176   -1.3550  -14.8578 Cl  0  0  0  0  0  0  0  0  0  0  0  0
  -24.8976   -1.4584  -12.1155 C   0  0  0  0  0  0  0  0  0  0  0  0
  -25.5166   -1.5490  -10.8479 C   0  0  0  0  0  0  0  0  0  0  0  0
  -23.3961   -1.3425  -12.1429 C   0  0  0  0  0  0  0  0  0  0  0  0
  -22.7659   -1.8803  -13.2173 F   0  0  0  0  0  0  0  0  0  0  0  0
  -22.9800   -0.0448  -12.0917 F   0  0  0  0  0  0  0  0  0  0  0  0
  -22.8274   -1.9458  -11.0552 F   0  0  0  0  0  0  0  0  0  0  0  0
  -29.0767   -6.6662   -3.6984 O   0  0  0  0  0  0  0  0  0  0  0  0
  -26.6357   -9.3359   -4.3090 C   0  0  0  0  0  0  0  0  0  0  0  0
  -27.1099   -8.0444   -4.1427 C   0  0  0  0  0  0  0  0  0  0  0  0
  -28.4736   -7.8799   -3.9271 C   0  0  0  0  0  0  0  0  0  0  0  0
  -29.3191   -8.9839   -3.9834 C   0  0  0  0  0  0  0  0  0  0  0  0
  -28.7565  -10.2321   -4.1850 C   0  0  0  0  0  0  0  0  0  0  0  0
  -27.4312  -10.4445   -4.3337 N   0  0  0  0  0  0  0  0  0  0  0  0
  -23.2847   -9.7697   -6.0036 C   0  0  0  0  0  0  0  0  0  0  0  0
  -24.6735   -9.5433   -5.7145 N   0  0  0  0  0  0  0  0  0  0  0  0
  -25.1598   -9.5650   -4.4255 C   0  0  0  0  0  0  0  0  0  0  0  0
  -24.4635   -9.7703   -3.4376 O   0  0  0  0  0  0  0  0  0  0  0  0
  -25.3490   -9.3860   -6.4582 H   0  0  0  0  0  0  0  0  0  0  0  0
 31 32  1  0  0  0
 32 33  1  0  0  0
 32 35  1  0  0  0
 33 34  2  0  0  0
 33 25  1  0  0  0
 25 26  1  0  0  0
 25 30  2  0  0  0
 26 27  2  0  0  0
 27 24  1  0  0  0
 27 28  1  0  0  0
 24  1  1  0  0  0
  1  2  1  0  0  0
  1  6  2  0  0  0
  2  3  2  0  0  0
  3  4  1  0  0  0
  4  7  1  0  0  0
  4  5  2  0  0  0
  7  8  1  0  0  0
  7 11  1  0  0  0
  8  9  2  0  0  0
  8 10  1  0  0  0
 10 13  1  0  0  0
 10 12  1  0  0  0
 13 14  1  0  0  0
 13 19  2  0  0  0
 14 15  2  0  0  0
 15 16  1  0  0  0
 16 17  1  0  0  0
 16 18  2  0  0  0
 18 20  1  0  0  0
 18 19  1  0  0  0
 20 21  1  0  0  0
 20 22  1  0  0  0
 20 23  1  0  0  0
  5  6  1  0  0  0
 28 29  2  0  0  0
 29 30  1  0  0  0
M  END
> <minimizedAffinity>
-9.33469

$$$$
