CHEMBL1086731


 40 44  0  0  0  0  0  0  0  0999 V2000
  -30.4025   -4.8005   -3.7485 C   0  0  0  0  0  0  0  0  0  0  0  0
  -30.0582   -4.4541   -5.1665 C   0  0  0  0  0  0  0  0  0  0  0  0
  -30.1943   -3.1092   -5.5532 C   0  0  0  0  0  0  0  0  0  0  0  0
  -29.7411   -2.6689   -6.7925 C   0  0  0  0  0  0  0  0  0  0  0  0
  -29.0914   -3.5420   -7.6456 C   0  0  0  0  0  0  0  0  0  0  0  0
  -29.0423   -4.9049   -7.3125 C   0  0  0  0  0  0  0  0  0  0  0  0
  -29.5815   -5.3996   -6.1064 C   0  0  0  0  0  0  0  0  0  0  0  0
  -28.4690   -3.1215   -8.8421 N   0  0  0  0  0  0  0  0  0  0  0  0
  -27.6053   -2.0466   -8.9948 C   0  0  0  0  0  0  0  0  0  0  0  0
  -27.2594   -1.2986   -8.0792 O   0  0  0  0  0  0  0  0  0  0  0  0
  -28.5814   -3.7216   -9.6513 H   0  0  0  0  0  0  0  0  0  0  0  0
  -27.0750   -1.8457  -10.3396 C   0  0  0  0  0  0  0  0  0  0  0  0
  -27.8000   -1.8653  -11.5148 C   0  0  0  0  0  0  0  0  0  0  0  0
  -26.9931   -1.6308  -12.6641 C   0  0  0  0  0  0  0  0  0  0  0  0
  -25.6588   -1.4362  -12.3443 C   0  0  0  0  0  0  0  0  0  0  0  0
  -25.4258   -1.5514  -10.6418 S   0  0  0  0  0  0  0  0  0  0  0  0
  -24.4705   -1.1523  -13.2700 C   0  0  0  0  0  0  0  0  0  0  0  0
  -23.9045    0.2655  -13.0411 C   0  0  0  0  0  0  0  0  0  0  0  0
  -23.3327   -2.1591  -13.0030 C   0  0  0  0  0  0  0  0  0  0  0  0
  -24.9111   -1.2481  -14.7443 C   0  0  0  0  0  0  0  0  0  0  0  0
  -29.6387   -6.7909   -5.8122 N   0  0  0  0  0  0  0  0  0  0  0  0
  -30.4650   -7.2458   -6.1970 H   0  0  0  0  0  0  0  0  0  0  0  0
  -28.5782   -7.6110   -5.5397 C   0  0  0  0  0  0  0  0  0  0  0  0
  -27.6336   -7.4314   -4.6418 N   0  0  0  0  0  0  0  0  0  0  0  0
  -26.8432   -8.5397   -4.6712 C   0  0  0  0  0  0  0  0  0  0  0  0
  -25.7110   -8.8202   -3.8896 C   0  0  0  0  0  0  0  0  0  0  0  0
  -25.0336  -10.0264   -4.0830 C   0  0  0  0  0  0  0  0  0  0  0  0
  -25.4492  -10.9158   -5.0680 C   0  0  0  0  0  0  0  0  0  0  0  0
  -26.5573  -10.6344   -5.8787 C   0  0  0  0  0  0  0  0  0  0  0  0
  -27.2788   -9.4498   -5.6276 C   0  0  0  0  0  0  0  0  0  0  0  0
  -28.4166   -8.8545   -6.1778 N   0  0  0  0  0  0  0  0  0  0  0  0
  -29.2768   -9.3946   -7.1832 C   0  0  0  0  0  0  0  0  0  0  0  0
  -28.9161   -9.2996   -8.5131 C   0  0  0  0  0  0  0  0  0  0  0  0
  -29.7694   -9.8661   -9.4321 C   0  0  0  0  0  0  0  0  0  0  0  0
  -29.4506   -9.8390  -10.7885 N   0  0  0  0  0  0  0  0  0  0  0  0
  -30.9310  -10.4271   -9.0902 N   0  0  0  0  0  0  0  0  0  0  0  0
  -31.2002  -10.4733   -7.7787 C   0  0  0  0  0  0  0  0  0  0  0  0
  -30.4067  -10.0294   -6.7906 N   0  0  0  0  0  0  0  0  0  0  0  0
  -28.5180  -10.2042  -10.9690 H   0  0  0  0  0  0  0  0  0  0  0  0
  -30.1601  -10.3632  -11.2897 H   0  0  0  0  0  0  0  0  0  0  0  0
  1  2  1  0  0  0
  2  3  1  0  0  0
  2  7  2  0  0  0
  3  4  2  0  0  0
  4  5  1  0  0  0
  5  8  1  0  0  0
  5  6  2  0  0  0
  8  9  1  0  0  0
  8 11  1  0  0  0
  9 10  2  0  0  0
  9 12  1  0  0  0
 12 13  2  0  0  0
 12 16  1  0  0  0
 13 14  1  0  0  0
 14 15  2  0  0  0
 15 17  1  0  0  0
 15 16  1  0  0  0
 17 18  1  0  0  0
 17 19  1  0  0  0
 17 20  1  0  0  0
  6  7  1  0  0  0
  7 21  1  0  0  0
 21 23  1  0  0  0
 21 22  1  0  0  0
 23 24  2  0  0  0
 23 31  1  0  0  0
 24 25  1  0  0  0
 25 26  1  0  0  0
 25 30  2  0  0  0
 26 27  2  0  0  0
 27 28  1  0  0  0
 28 29  2  0  0  0
 29 30  1  0  0  0
 30 31  1  0  0  0
 31 32  1  0  0  0
 32 33  1  0  0  0
 32 38  2  0  0  0
 33 34  2  0  0  0
 34 35  1  0  0  0
 34 36  1  0  0  0
 35 39  1  0  0  0
 35 40  1  0  0  0
 36 37  2  0  0  0
 37 38  1  0  0  0
M  END
> <minimizedAffinity>
-10.57983

$$$$
