CHEMBL2001228


 46 52  0  0  0  0  0  0  0  0999 V2000
  -14.0253    2.3446  -16.7070 C   0  0  0  0  0  0  0  0  0  0  0  0
  -13.8453    3.7156  -16.7922 N   0  0  0  0  0  0  0  0  0  0  0  0
  -13.2016    3.8739  -17.9080 C   0  0  0  0  0  0  0  0  0  0  0  0
  -12.6320    5.2574  -18.7861 S   0  0  0  0  0  0  0  0  0  0  0  0
  -12.1086    4.1712  -20.0784 C   0  0  0  0  0  0  0  0  0  0  0  0
  -12.3471    2.8781  -19.8036 C   0  0  0  0  0  0  0  0  0  0  0  0
  -12.9675    2.7156  -18.5813 N   0  0  0  0  0  0  0  0  0  0  0  0
  -13.4538    1.6764  -17.8104 C   0  0  0  0  0  0  0  0  0  0  0  0
  -16.8210    1.5175  -14.2542 C   0  0  0  0  0  0  0  0  0  0  0  0
  -16.1471    0.6587  -13.3811 C   0  0  0  0  0  0  0  0  0  0  0  0
  -14.8314    0.3008  -13.6381 C   0  0  0  0  0  0  0  0  0  0  0  0
  -14.1870    0.8103  -14.7634 C   0  0  0  0  0  0  0  0  0  0  0  0
  -14.7982    1.7624  -15.6028 C   0  0  0  0  0  0  0  0  0  0  0  0
  -16.1493    2.0879  -15.3549 C   0  0  0  0  0  0  0  0  0  0  0  0
  -17.0133    3.2900  -16.2760 Cl  0  0  0  0  0  0  0  0  0  0  0  0
  -18.9531    0.1581  -15.4910 O   0  0  0  0  0  0  0  0  0  0  0  0
  -19.1798    1.0699  -14.6950 C   0  0  0  0  0  0  0  0  0  0  0  0
  -18.1921    1.7794  -14.0405 N   0  0  0  0  0  0  0  0  0  0  0  0
  -18.4394    2.2091  -13.1521 H   0  0  0  0  0  0  0  0  0  0  0  0
  -20.5937    1.3790  -14.3539 C   0  0  0  0  0  0  0  0  0  0  0  0
  -21.4670    0.3107  -14.1441 C   0  0  0  0  0  0  0  0  0  0  0  0
  -22.8121    0.5280  -13.8592 C   0  0  0  0  0  0  0  0  0  0  0  0
  -23.3073    1.8325  -13.7913 C   0  0  0  0  0  0  0  0  0  0  0  0
  -22.4430    2.9103  -13.9939 C   0  0  0  0  0  0  0  0  0  0  0  0
  -21.1024    2.6820  -14.2746 C   0  0  0  0  0  0  0  0  0  0  0  0
  -20.3024    3.7481  -14.4562 F   0  0  0  0  0  0  0  0  0  0  0  0
  -13.3734    0.2734  -18.2154 C   0  0  0  0  0  0  0  0  0  0  0  0
  -13.7991   -0.1694  -19.4485 C   0  0  0  0  0  0  0  0  0  0  0  0
  -13.4915   -1.4689  -19.7515 C   0  0  0  0  0  0  0  0  0  0  0  0
  -12.8742   -2.2917  -18.8956 N   0  0  0  0  0  0  0  0  0  0  0  0
  -12.5610   -1.8091  -17.6839 C   0  0  0  0  0  0  0  0  0  0  0  0
  -12.7843   -0.5397  -17.3150 N   0  0  0  0  0  0  0  0  0  0  0  0
  -12.0356   -2.6632  -16.7210 N   0  0  0  0  0  0  0  0  0  0  0  0
  -11.7041   -3.5248  -17.1257 H   0  0  0  0  0  0  0  0  0  0  0  0
  -12.3013   -2.6972  -15.3452 C   0  0  0  0  0  0  0  0  0  0  0  0
  -11.3603   -2.3026  -14.3925 C   0  0  0  0  0  0  0  0  0  0  0  0
  -11.6614   -2.3646  -13.0362 C   0  0  0  0  0  0  0  0  0  0  0  0
  -12.9094   -2.8305  -12.6237 C   0  0  0  0  0  0  0  0  0  0  0  0
  -13.8861   -3.2429  -13.5419 C   0  0  0  0  0  0  0  0  0  0  0  0
  -13.5478   -3.1673  -14.9027 C   0  0  0  0  0  0  0  0  0  0  0  0
  -15.1130   -3.7056  -13.1163 N   0  0  0  0  0  0  0  0  0  0  0  0
  -15.9596   -2.9905  -12.1517 C   0  0  0  0  0  0  0  0  0  0  0  0
  -16.2252   -3.8796  -10.9301 C   0  0  0  0  0  0  0  0  0  0  0  0
  -16.7939   -5.1433  -11.3145 O   0  0  0  0  0  0  0  0  0  0  0  0
  -15.8983   -5.8455  -12.1929 C   0  0  0  0  0  0  0  0  0  0  0  0
  -15.6001   -5.0466  -13.4734 C   0  0  0  0  0  0  0  0  0  0  0  0
 16 17  2  0  0  0
 17 18  1  0  0  0
 17 20  1  0  0  0
 18  9  1  0  0  0
 18 19  1  0  0  0
  9 10  1  0  0  0
  9 14  2  0  0  0
 10 11  2  0  0  0
 11 12  1  0  0  0
 12 13  2  0  0  0
 13  1  1  0  0  0
 13 14  1  0  0  0
  1  2  1  0  0  0
  1  8  2  0  0  0
  2  3  2  0  0  0
  3  4  1  0  0  0
  3  7  1  0  0  0
  4  5  1  0  0  0
  5  6  2  0  0  0
  6  7  1  0  0  0
  7  8  1  0  0  0
  8 27  1  0  0  0
 27 28  1  0  0  0
 27 32  2  0  0  0
 28 29  2  0  0  0
 29 30  1  0  0  0
 30 31  2  0  0  0
 31 33  1  0  0  0
 31 32  1  0  0  0
 33 35  1  0  0  0
 33 34  1  0  0  0
 35 36  1  0  0  0
 35 40  2  0  0  0
 36 37  2  0  0  0
 37 38  1  0  0  0
 38 39  2  0  0  0
 39 41  1  0  0  0
 39 40  1  0  0  0
 41 42  1  0  0  0
 41 46  1  0  0  0
 42 43  1  0  0  0
 43 44  1  0  0  0
 44 45  1  0  0  0
 45 46  1  0  0  0
 14 15  1  0  0  0
 20 21  1  0  0  0
 20 25  2  0  0  0
 21 22  2  0  0  0
 22 23  1  0  0  0
 23 24  2  0  0  0
 24 25  1  0  0  0
 25 26  1  0  0  0
M  END
> <minimizedAffinity>
-9.08750

$$$$
