CHEMBL1992242


 29 32  0  0  0  0  0  0  0  0999 V2000
  -15.1684   -2.6164  -12.0317 C   0  0  0  0  0  0  0  0  0  0  0  0
  -13.8824   -2.9289  -12.4832 C   0  0  0  0  0  0  0  0  0  0  0  0
  -13.4667   -4.2616  -12.5925 C   0  0  0  0  0  0  0  0  0  0  0  0
  -14.3084   -5.3289  -12.2337 C   0  0  0  0  0  0  0  0  0  0  0  0
  -15.5822   -4.9862  -11.7375 C   0  0  0  0  0  0  0  0  0  0  0  0
  -16.0039   -3.6493  -11.6238 C   0  0  0  0  0  0  0  0  0  0  0  0
  -13.8253   -6.7315  -12.2810 C   0  0  0  0  0  0  0  0  0  0  0  0
  -14.4807   -7.6912  -13.0914 C   0  0  0  0  0  0  0  0  0  0  0  0
  -13.9901   -8.9807  -13.2673 C   0  0  0  0  0  0  0  0  0  0  0  0
  -12.7962   -9.3640  -12.6685 C   0  0  0  0  0  0  0  0  0  0  0  0
  -12.1617   -8.4478  -11.8174 C   0  0  0  0  0  0  0  0  0  0  0  0
  -10.6965   -8.6514  -10.9333 S   0  0  0  0  0  0  0  0  0  0  0  0
  -10.7625   -7.2091  -10.1330 N   0  0  0  0  0  0  0  0  0  0  0  0
  -11.8466   -6.5577  -10.5455 C   0  0  0  0  0  0  0  0  0  0  0  0
  -12.6660   -7.1642  -11.5667 C   0  0  0  0  0  0  0  0  0  0  0  0
  -16.4328    0.6251  -13.0384 N   0  0  0  0  0  0  0  0  0  0  0  0
  -15.9422   -0.6510  -13.2228 C   0  0  0  0  0  0  0  0  0  0  0  0
  -15.8171   -1.1940  -14.3202 O   0  0  0  0  0  0  0  0  0  0  0  0
  -15.6331   -1.2807  -12.0230 N   0  0  0  0  0  0  0  0  0  0  0  0
  -16.0743    1.1255  -12.2385 H   0  0  0  0  0  0  0  0  0  0  0  0
  -16.2398   -1.0186  -11.2561 H   0  0  0  0  0  0  0  0  0  0  0  0
  -20.5366    2.2780  -15.2665 C   0  0  0  0  0  0  0  0  0  0  0  0
  -19.0403    2.2136  -15.1782 C   0  0  0  0  0  0  0  0  0  0  0  0
  -18.2519    2.9707  -16.0543 C   0  0  0  0  0  0  0  0  0  0  0  0
  -16.8596    2.9298  -15.9714 C   0  0  0  0  0  0  0  0  0  0  0  0
  -15.9968    3.7357  -16.8962 C   0  0  0  0  0  0  0  0  0  0  0  0
  -16.2591    2.1373  -14.9845 C   0  0  0  0  0  0  0  0  0  0  0  0
  -17.0236    1.3983  -14.0732 C   0  0  0  0  0  0  0  0  0  0  0  0
  -18.4176    1.4156  -14.1988 C   0  0  0  0  0  0  0  0  0  0  0  0
 22 23  1  0  0  0
 23 24  1  0  0  0
 23 29  2  0  0  0
 24 25  2  0  0  0
 25 26  1  0  0  0
 25 27  1  0  0  0
 27 28  2  0  0  0
 28 16  1  0  0  0
 28 29  1  0  0  0
 16 17  1  0  0  0
 16 20  1  0  0  0
 17 18  2  0  0  0
 17 19  1  0  0  0
 19  1  1  0  0  0
 19 21  1  0  0  0
  1  2  1  0  0  0
  1  6  2  0  0  0
  2  3  2  0  0  0
  3  4  1  0  0  0
  4  7  1  0  0  0
  4  5  2  0  0  0
  7  8  1  0  0  0
  7 15  2  0  0  0
  8  9  2  0  0  0
  9 10  1  0  0  0
 10 11  2  0  0  0
 11 12  1  0  0  0
 11 15  1  0  0  0
 12 13  1  0  0  0
 13 14  2  0  0  0
 14 15  1  0  0  0
  5  6  1  0  0  0
M  END
> <minimizedAffinity>
-8.47114

$$$$
