CHEMBL3694692


 37 40  0  0  0  0  0  0  0  0999 V2000
  -18.2910    2.3043  -15.4789 C   0  0  0  0  0  0  0  0  0  0  0  0
  -17.8865    3.6740  -15.8869 C   0  0  0  0  0  0  0  0  0  0  0  0
  -16.5738    3.9911  -15.9695 C   0  0  0  0  0  0  0  0  0  0  0  0
  -15.6376    2.9491  -15.8763 N   0  0  0  0  0  0  0  0  0  0  0  0
  -14.2628    2.8613  -16.1815 C   0  0  0  0  0  0  0  0  0  0  0  0
  -14.4735    2.1413  -17.3683 C   0  0  0  0  0  0  0  0  0  0  0  0
  -15.4349    1.1748  -17.1144 N   0  0  0  0  0  0  0  0  0  0  0  0
  -16.0878    1.6469  -16.0648 C   0  0  0  0  0  0  0  0  0  0  0  0
  -17.3535    1.3259  -15.5181 C   0  0  0  0  0  0  0  0  0  0  0  0
  -22.5171    3.5711  -13.6914 N   0  0  0  0  0  0  0  0  0  0  0  0
  -21.7128    2.5574  -14.2140 C   0  0  0  0  0  0  0  0  0  0  0  0
  -20.4961    2.9210  -14.6493 N   0  0  0  0  0  0  0  0  0  0  0  0
  -19.6777    1.9401  -15.0911 C   0  0  0  0  0  0  0  0  0  0  0  0
  -20.0057    0.6320  -15.1450 N   0  0  0  0  0  0  0  0  0  0  0  0
  -21.2304    0.3104  -14.6837 C   0  0  0  0  0  0  0  0  0  0  0  0
  -22.1162    1.2330  -14.1942 C   0  0  0  0  0  0  0  0  0  0  0  0
  -23.3253    0.8720  -13.7493 F   0  0  0  0  0  0  0  0  0  0  0  0
  -22.0850    4.4732  -13.8745 H   0  0  0  0  0  0  0  0  0  0  0  0
  -23.4805    3.5133  -14.0037 H   0  0  0  0  0  0  0  0  0  0  0  0
  -13.2337    2.3607  -15.1944 C   0  0  0  0  0  0  0  0  0  0  0  0
  -12.4011    3.2437  -14.4983 C   0  0  0  0  0  0  0  0  0  0  0  0
  -11.6923    2.7988  -13.3788 C   0  0  0  0  0  0  0  0  0  0  0  0
  -10.7485    3.9161  -12.4668 Cl  0  0  0  0  0  0  0  0  0  0  0  0
  -11.7755    1.4747  -12.9459 C   0  0  0  0  0  0  0  0  0  0  0  0
  -12.5615    0.5557  -13.6380 C   0  0  0  0  0  0  0  0  0  0  0  0
  -13.2647    1.0043  -14.7727 C   0  0  0  0  0  0  0  0  0  0  0  0
  -12.7086   -0.8009  -13.2346 N   0  0  0  0  0  0  0  0  0  0  0  0
  -13.8811   -1.5270  -13.2102 C   0  0  0  0  0  0  0  0  0  0  0  0
  -14.9890   -1.1475  -13.5776 O   0  0  0  0  0  0  0  0  0  0  0  0
  -13.7265   -2.7807  -12.6631 N   0  0  0  0  0  0  0  0  0  0  0  0
  -11.8781   -1.2716  -12.9046 H   0  0  0  0  0  0  0  0  0  0  0  0
  -12.8395   -3.2424  -12.8086 H   0  0  0  0  0  0  0  0  0  0  0  0
  -14.9143   -3.6446  -12.5389 C   0  0  0  0  0  0  0  0  0  0  0  0
  -15.6613   -3.5888  -11.1973 C   0  0  0  0  0  0  0  0  0  0  0  0
  -16.0169   -2.3262  -10.8671 F   0  0  0  0  0  0  0  0  0  0  0  0
  -16.8100   -4.3080  -11.2807 F   0  0  0  0  0  0  0  0  0  0  0  0
  -14.9410   -4.1056  -10.1811 F   0  0  0  0  0  0  0  0  0  0  0  0
 10 11  1  0  0  0
 10 18  1  0  0  0
 10 19  1  0  0  0
 11 12  1  0  0  0
 11 16  2  0  0  0
 12 13  2  0  0  0
 13  1  1  0  0  0
 13 14  1  0  0  0
  1  2  1  0  0  0
  1  9  2  0  0  0
  2  3  2  0  0  0
  3  4  1  0  0  0
  4  5  1  0  0  0
  4  8  1  0  0  0
  5 20  1  0  0  0
  5  6  2  0  0  0
 20 21  1  0  0  0
 20 26  2  0  0  0
 21 22  2  0  0  0
 22 23  1  0  0  0
 22 24  1  0  0  0
 24 25  2  0  0  0
 25 27  1  0  0  0
 25 26  1  0  0  0
 27 28  1  0  0  0
 27 31  1  0  0  0
 28 29  2  0  0  0
 28 30  1  0  0  0
 30 33  1  0  0  0
 30 32  1  0  0  0
 33 34  1  0  0  0
 34 35  1  0  0  0
 34 36  1  0  0  0
 34 37  1  0  0  0
  6  7  1  0  0  0
  7  8  2  0  0  0
  8  9  1  0  0  0
 14 15  2  0  0  0
 15 16  1  0  0  0
 16 17  1  0  0  0
M  END
> <minimizedAffinity>
-8.84905

$$$$
