CHEMBL4793877


 33 36  0  0  0  0  0  0  0  0999 V2000
  -23.2171   -0.8398  -13.4558 C   0  0  0  0  0  0  0  0  0  0  0  0
  -24.5357   -1.1307  -13.8033 C   0  0  0  0  0  0  0  0  0  0  0  0
  -25.4320   -1.6199  -12.8443 C   0  0  0  0  0  0  0  0  0  0  0  0
  -25.0231   -1.8416  -11.5257 C   0  0  0  0  0  0  0  0  0  0  0  0
  -23.6765   -1.6646  -11.2079 C   0  0  0  0  0  0  0  0  0  0  0  0
  -22.7842   -1.1886  -12.1691 C   0  0  0  0  0  0  0  0  0  0  0  0
  -25.9027   -2.1903  -10.4765 N   0  0  0  0  0  0  0  0  0  0  0  0
  -27.1660   -1.6730  -10.2630 C   0  0  0  0  0  0  0  0  0  0  0  0
  -27.7818   -0.9114  -11.0010 O   0  0  0  0  0  0  0  0  0  0  0  0
  -25.4933   -2.7581   -9.7413 H   0  0  0  0  0  0  0  0  0  0  0  0
  -27.8161   -2.0374   -8.9749 C   0  0  0  0  0  0  0  0  0  0  0  0
  -28.5450   -3.2233   -8.8067 C   0  0  0  0  0  0  0  0  0  0  0  0
  -29.1410   -3.4994   -7.5711 C   0  0  0  0  0  0  0  0  0  0  0  0
  -29.0109   -2.5985   -6.5126 C   0  0  0  0  0  0  0  0  0  0  0  0
  -28.2930   -1.4179   -6.6894 C   0  0  0  0  0  0  0  0  0  0  0  0
  -28.1356   -0.3073   -5.3847 Cl  0  0  0  0  0  0  0  0  0  0  0  0
  -27.7014   -1.1327   -7.9153 C   0  0  0  0  0  0  0  0  0  0  0  0
  -22.3413   -0.2383  -14.3865 N   0  0  0  0  0  0  0  0  0  0  0  0
  -22.5461   -0.5056  -15.3445 H   0  0  0  0  0  0  0  0  0  0  0  0
  -18.0003    2.4473  -14.8924 C   0  0  0  0  0  0  0  0  0  0  0  0
  -19.0536    3.3018  -14.5365 C   0  0  0  0  0  0  0  0  0  0  0  0
  -20.3521    2.8559  -14.3836 C   0  0  0  0  0  0  0  0  0  0  0  0
  -21.2857    3.7688  -14.1112 N   0  0  0  0  0  0  0  0  0  0  0  0
  -22.5349    3.3226  -13.9927 C   0  0  0  0  0  0  0  0  0  0  0  0
  -22.9172    2.0518  -14.0959 N   0  0  0  0  0  0  0  0  0  0  0  0
  -21.9621    1.1318  -14.3469 C   0  0  0  0  0  0  0  0  0  0  0  0
  -20.6195    1.4924  -14.5361 C   0  0  0  0  0  0  0  0  0  0  0  0
  -19.5511    0.6072  -14.8255 C   0  0  0  0  0  0  0  0  0  0  0  0
  -18.2404    1.0731  -14.9767 C   0  0  0  0  0  0  0  0  0  0  0  0
  -16.7624    4.1009  -16.0193 C   0  0  0  0  0  0  0  0  0  0  0  0
  -16.7525    2.9373  -15.1867 O   0  0  0  0  0  0  0  0  0  0  0  0
  -17.3393    0.0865  -15.2693 O   0  0  0  0  0  0  0  0  0  0  0  0
  -16.4219   -0.2732  -14.2417 C   0  0  0  0  0  0  0  0  0  0  0  0
 30 31  1  0  0  0
 31 20  1  0  0  0
 20 21  1  0  0  0
 20 29  2  0  0  0
 21 22  2  0  0  0
 22 23  1  0  0  0
 22 27  1  0  0  0
 23 24  2  0  0  0
 24 25  1  0  0  0
 25 26  2  0  0  0
 26 18  1  0  0  0
 26 27  1  0  0  0
 18  1  1  0  0  0
 18 19  1  0  0  0
  1  2  1  0  0  0
  1  6  2  0  0  0
  2  3  2  0  0  0
  3  4  1  0  0  0
  4  7  1  0  0  0
  4  5  2  0  0  0
  7  8  1  0  0  0
  7 10  1  0  0  0
  8  9  2  0  0  0
  8 11  1  0  0  0
 11 12  1  0  0  0
 11 17  2  0  0  0
 12 13  2  0  0  0
 13 14  1  0  0  0
 14 15  2  0  0  0
 15 16  1  0  0  0
 15 17  1  0  0  0
  5  6  1  0  0  0
 27 28  2  0  0  0
 28 29  1  0  0  0
 29 32  1  0  0  0
 32 33  1  0  0  0
M  END
> <minimizedAffinity>
-10.18808

$$$$
