CHEMBL203404


 24 26  0  0  0  0  0  0  0  0999 V2000
  -29.6584   -4.8174   -4.8754 C   0  0  0  0  0  0  0  0  0  0  0  0
  -29.0460   -5.4320   -3.8536 N   0  0  0  0  0  0  0  0  0  0  0  0
  -29.1009   -6.7673   -3.8071 C   0  0  0  0  0  0  0  0  0  0  0  0
  -29.7332   -7.5196   -4.7539 C   0  0  0  0  0  0  0  0  0  0  0  0
  -30.3075   -6.8381   -5.8035 C   0  0  0  0  0  0  0  0  0  0  0  0
  -30.2970   -5.4915   -5.8525 N   0  0  0  0  0  0  0  0  0  0  0  0
  -28.8409    1.2150   -6.6138 C   0  0  0  0  0  0  0  0  0  0  0  0
  -28.3996    0.4959   -5.3645 C   0  0  0  0  0  0  0  0  0  0  0  0
  -27.9987    1.1343   -4.3913 O   0  0  0  0  0  0  0  0  0  0  0  0
  -28.4966   -0.8825   -5.3682 N   0  0  0  0  0  0  0  0  0  0  0  0
  -28.9250   -1.7088   -6.5084 C   0  0  0  0  0  0  0  0  0  0  0  0
  -30.0286   -2.7062   -6.1048 C   0  0  0  0  0  0  0  0  0  0  0  0
  -29.6023   -3.4515   -4.9277 N   0  0  0  0  0  0  0  0  0  0  0  0
  -29.1986   -2.6522   -3.7666 C   0  0  0  0  0  0  0  0  0  0  0  0
  -28.0980   -1.6549   -4.1813 C   0  0  0  0  0  0  0  0  0  0  0  0
  -30.9379   -7.5057   -6.8651 N   0  0  0  0  0  0  0  0  0  0  0  0
  -31.7953   -7.0350   -7.1281 H   0  0  0  0  0  0  0  0  0  0  0  0
  -30.3050   -8.2752   -7.7805 C   0  0  0  0  0  0  0  0  0  0  0  0
  -30.7982   -9.3587   -8.3438 N   0  0  0  0  0  0  0  0  0  0  0  0
  -29.8789   -9.9538   -9.1744 C   0  0  0  0  0  0  0  0  0  0  0  0
  -28.6723   -9.3006   -9.2648 C   0  0  0  0  0  0  0  0  0  0  0  0
  -28.6999   -7.8952   -8.2912 S   0  0  0  0  0  0  0  0  0  0  0  0
  -27.5618   -9.7352  -10.0344 C   0  0  0  0  0  0  0  0  0  0  0  0
  -26.6603  -10.1071  -10.6675 N   0  0  0  0  0  0  0  0  0  0  0  0
  7  8  1  0  0  0
  8  9  2  0  0  0
  8 10  1  0  0  0
 10 11  1  0  0  0
 10 15  1  0  0  0
 11 12  1  0  0  0
 12 13  1  0  0  0
 13  1  1  0  0  0
 13 14  1  0  0  0
  1  2  1  0  0  0
  1  6  2  0  0  0
  2  3  2  0  0  0
  3  4  1  0  0  0
  4  5  2  0  0  0
  5 16  1  0  0  0
  5  6  1  0  0  0
 16 18  1  0  0  0
 16 17  1  0  0  0
 18 19  2  0  0  0
 18 22  1  0  0  0
 19 20  1  0  0  0
 20 21  2  0  0  0
 21 23  1  0  0  0
 21 22  1  0  0  0
 23 24  3  0  0  0
 14 15  1  0  0  0
M  END
> <minimizedAffinity>
-7.22020

$$$$
