CHEMBL4214146


 37 39  0  0  0  0  0  0  0  0999 V2000
  -29.0650   -8.0858   -7.7305 C   0  0  0  0  0  0  0  0  0  0  0  0
  -26.1392  -10.0544   -5.2055 C   0  0  0  0  0  0  0  0  0  0  0  0
  -27.0521   -9.1469   -4.6492 C   0  0  0  0  0  0  0  0  0  0  0  0
  -28.0204   -8.5231   -5.4548 C   0  0  0  0  0  0  0  0  0  0  0  0
  -28.1012   -8.8132   -6.8256 C   0  0  0  0  0  0  0  0  0  0  0  0
  -27.2028   -9.7434   -7.3541 C   0  0  0  0  0  0  0  0  0  0  0  0
  -27.2689  -10.0671   -8.6537 F   0  0  0  0  0  0  0  0  0  0  0  0
  -26.2340  -10.3529   -6.5672 C   0  0  0  0  0  0  0  0  0  0  0  0
  -23.6612  -10.6136   -4.6468 C   0  0  0  0  0  0  0  0  0  0  0  0
  -22.7771  -11.2025   -3.8217 C   0  0  0  0  0  0  0  0  0  0  0  0
  -23.2443  -11.9463   -2.6281 C   0  0  0  0  0  0  0  0  0  0  0  0
  -22.4537  -12.4658   -1.8569 O   0  0  0  0  0  0  0  0  0  0  0  0
  -24.6009  -11.9968   -2.4590 N   0  0  0  0  0  0  0  0  0  0  0  0
  -25.5074  -11.4070   -3.3016 C   0  0  0  0  0  0  0  0  0  0  0  0
  -25.1011  -10.7215   -4.3916 C   0  0  0  0  0  0  0  0  0  0  0  0
  -24.9164  -12.4886   -1.6284 H   0  0  0  0  0  0  0  0  0  0  0  0
  -23.3489   -9.8702   -5.7724 O   0  0  0  0  0  0  0  0  0  0  0  0
  -22.7605  -11.4701   -7.4525 C   0  0  0  0  0  0  0  0  0  0  0  0
  -22.2624  -10.3422   -6.5724 C   0  0  0  0  0  0  0  0  0  0  0  0
  -29.4945   -6.7218   -7.2327 C   0  0  0  0  0  0  0  0  0  0  0  0
  -30.6853   -6.4235   -7.1545 O   0  0  0  0  0  0  0  0  0  0  0  0
  -28.4420   -5.8651   -6.9262 N   0  0  0  0  0  0  0  0  0  0  0  0
  -27.5844   -6.0270   -7.4408 H   0  0  0  0  0  0  0  0  0  0  0  0
  -28.6964   -4.5557   -6.4716 C   0  0  0  0  0  0  0  0  0  0  0  0
  -28.4454   -3.4560   -7.2818 C   0  0  0  0  0  0  0  0  0  0  0  0
  -28.6020   -2.1642   -6.7784 C   0  0  0  0  0  0  0  0  0  0  0  0
  -29.0258   -1.9269   -5.4498 C   0  0  0  0  0  0  0  0  0  0  0  0
  -29.3459   -3.0508   -4.6455 C   0  0  0  0  0  0  0  0  0  0  0  0
  -29.1837   -4.3554   -5.1819 C   0  0  0  0  0  0  0  0  0  0  0  0
  -29.8582   -2.9861   -3.2182 C   0  0  0  0  0  0  0  0  0  0  0  0
  -30.7821   -2.0216   -2.9701 F   0  0  0  0  0  0  0  0  0  0  0  0
  -30.4457   -4.1569   -2.8427 F   0  0  0  0  0  0  0  0  0  0  0  0
  -28.8592   -2.7661   -2.3200 F   0  0  0  0  0  0  0  0  0  0  0  0
  -29.0618   -0.4866   -4.9284 C   0  0  0  0  0  0  0  0  0  0  0  0
  -27.7044    0.2002   -5.0773 C   0  0  0  0  0  0  0  0  0  0  0  0
  -30.0997    0.3584   -5.6488 C   0  0  0  0  0  0  0  0  0  0  0  0
  -30.9608    1.0595   -6.2465 N   0  0  0  0  0  0  0  0  0  0  0  0
 18 19  1  0  0  0
 19 17  1  0  0  0
 17  9  1  0  0  0
  9 10  2  0  0  0
  9 15  1  0  0  0
 10 11  1  0  0  0
 11 12  2  0  0  0
 11 13  1  0  0  0
 13 14  1  0  0  0
 13 16  1  0  0  0
 14 15  2  0  0  0
 15  2  1  0  0  0
  2  3  1  0  0  0
  2  8  2  0  0  0
  3  4  2  0  0  0
  4  5  1  0  0  0
  5  1  1  0  0  0
  5  6  2  0  0  0
  1 20  1  0  0  0
 20 21  2  0  0  0
 20 22  1  0  0  0
 22 24  1  0  0  0
 22 23  1  0  0  0
 24 25  1  0  0  0
 24 29  2  0  0  0
 25 26  2  0  0  0
 26 27  1  0  0  0
 27 34  1  0  0  0
 27 28  2  0  0  0
 34 35  1  0  0  0
 34 36  1  0  0  0
 36 37  3  0  0  0
 28 30  1  0  0  0
 28 29  1  0  0  0
 30 31  1  0  0  0
 30 32  1  0  0  0
 30 33  1  0  0  0
  6  7  1  0  0  0
  6  8  1  0  0  0
M  END
> <minimizedAffinity>
-8.17503

$$$$
