CHEMBL4446681


 38 42  0  0  0  0  0  0  0  0999 V2000
  -29.2963   -4.4869   -6.7233 C   0  0  0  0  0  0  0  0  0  0  0  0
  -29.1726   -4.2264   -5.3682 C   0  0  0  0  0  0  0  0  0  0  0  0
  -29.0271   -2.8760   -5.2778 N   0  0  0  0  0  0  0  0  0  0  0  0
  -29.5349   -2.1067   -4.1670 C   0  0  0  0  0  0  0  0  0  0  0  0
  -28.5523   -2.3754   -6.4594 C   0  0  0  0  0  0  0  0  0  0  0  0
  -28.2185   -1.0693   -6.8263 C   0  0  0  0  0  0  0  0  0  0  0  0
  -27.7132   -0.8543   -8.1083 C   0  0  0  0  0  0  0  0  0  0  0  0
  -27.5118   -1.9183   -8.9915 C   0  0  0  0  0  0  0  0  0  0  0  0
  -27.9770   -3.2111   -8.6533 C   0  0  0  0  0  0  0  0  0  0  0  0
  -28.5373   -3.4422   -7.3694 C   0  0  0  0  0  0  0  0  0  0  0  0
  -26.8751   -1.6742  -10.3284 C   0  0  0  0  0  0  0  0  0  0  0  0
  -27.6008   -1.6059  -11.3136 O   0  0  0  0  0  0  0  0  0  0  0  0
  -25.4832   -1.5924  -10.3279 N   0  0  0  0  0  0  0  0  0  0  0  0
  -24.9966   -1.8992   -9.4960 H   0  0  0  0  0  0  0  0  0  0  0  0
  -24.6517   -1.2578  -11.4231 C   0  0  0  0  0  0  0  0  0  0  0  0
  -23.9330   -2.2036  -12.1615 C   0  0  0  0  0  0  0  0  0  0  0  0
  -23.1253   -1.8083  -13.2278 C   0  0  0  0  0  0  0  0  0  0  0  0
  -23.0362   -0.4661  -13.5641 C   0  0  0  0  0  0  0  0  0  0  0  0
  -22.2502   -0.0867  -14.5796 F   0  0  0  0  0  0  0  0  0  0  0  0
  -23.7560    0.4894  -12.8615 C   0  0  0  0  0  0  0  0  0  0  0  0
  -24.5713    0.0946  -11.7946 C   0  0  0  0  0  0  0  0  0  0  0  0
  -30.2107   -5.5061   -7.3621 C   0  0  0  0  0  0  0  0  0  0  0  0
  -31.3733   -7.5894   -6.8909 C   0  0  0  0  0  0  0  0  0  0  0  0
  -30.1764   -6.7917   -6.6073 N   0  0  0  0  0  0  0  0  0  0  0  0
  -28.9564   -7.5758   -6.8927 C   0  0  0  0  0  0  0  0  0  0  0  0
  -29.0161   -9.0027   -6.3103 C   0  0  0  0  0  0  0  0  0  0  0  0
  -27.6783   -9.4338   -5.7691 C   0  0  0  0  0  0  0  0  0  0  0  0
  -27.0926   -8.8028   -4.6689 C   0  0  0  0  0  0  0  0  0  0  0  0
  -25.8351   -9.2130   -4.1986 C   0  0  0  0  0  0  0  0  0  0  0  0
  -25.1344  -10.2717   -4.8037 C   0  0  0  0  0  0  0  0  0  0  0  0
  -25.7492  -10.8897   -5.9086 C   0  0  0  0  0  0  0  0  0  0  0  0
  -26.9892  -10.4725   -6.3938 C   0  0  0  0  0  0  0  0  0  0  0  0
  -23.8192  -10.7479   -4.3097 C   0  0  0  0  0  0  0  0  0  0  0  0
  -23.5411  -10.8833   -2.9377 C   0  0  0  0  0  0  0  0  0  0  0  0
  -22.3219  -11.3935   -2.4915 C   0  0  0  0  0  0  0  0  0  0  0  0
  -21.3462  -11.8025   -3.3978 C   0  0  0  0  0  0  0  0  0  0  0  0
  -21.5908  -11.6621   -4.7611 C   0  0  0  0  0  0  0  0  0  0  0  0
  -22.8011  -11.1354   -5.2091 C   0  0  0  0  0  0  0  0  0  0  0  0
 23 24  1  0  0  0
 24 25  1  0  0  0
 24 22  1  0  0  0
 25 26  1  0  0  0
 26 27  1  0  0  0
 27 28  1  0  0  0
 27 32  2  0  0  0
 28 29  2  0  0  0
 29 30  1  0  0  0
 30 33  1  0  0  0
 30 31  2  0  0  0
 33 34  1  0  0  0
 33 38  2  0  0  0
 34 35  2  0  0  0
 35 36  1  0  0  0
 36 37  2  0  0  0
 37 38  1  0  0  0
 31 32  1  0  0  0
 22  1  1  0  0  0
  1  2  2  0  0  0
  1 10  1  0  0  0
  2  3  1  0  0  0
  3  4  1  0  0  0
  3  5  1  0  0  0
  5  6  1  0  0  0
  5 10  2  0  0  0
  6  7  2  0  0  0
  7  8  1  0  0  0
  8 11  1  0  0  0
  8  9  2  0  0  0
 11 12  2  0  0  0
 11 13  1  0  0  0
 13 15  1  0  0  0
 13 14  1  0  0  0
 15 16  1  0  0  0
 15 21  2  0  0  0
 16 17  2  0  0  0
 17 18  1  0  0  0
 18 19  1  0  0  0
 18 20  2  0  0  0
 20 21  1  0  0  0
  9 10  1  0  0  0
M  END
> <minimizedAffinity>
-10.81183

$$$$
