CHEMBL4447942


 31 35  0  0  0  0  0  0  0  0999 V2000
  -29.1329   -5.0390   -6.4297 C   0  0  0  0  0  0  0  0  0  0  0  0
  -28.7318   -6.2535   -6.9455 C   0  0  0  0  0  0  0  0  0  0  0  0
  -29.3758   -7.1720   -6.1723 N   0  0  0  0  0  0  0  0  0  0  0  0
  -30.1549   -6.5718   -5.2507 N   0  0  0  0  0  0  0  0  0  0  0  0
  -30.0273   -5.2582   -5.4147 N   0  0  0  0  0  0  0  0  0  0  0  0
  -28.0984   -2.1170   -8.6035 C   0  0  0  0  0  0  0  0  0  0  0  0
  -27.7395   -1.2032   -7.6084 C   0  0  0  0  0  0  0  0  0  0  0  0
  -27.8153   -1.5390   -6.2599 C   0  0  0  0  0  0  0  0  0  0  0  0
  -28.2588   -2.8012   -5.8855 C   0  0  0  0  0  0  0  0  0  0  0  0
  -28.6522   -3.7353   -6.8536 C   0  0  0  0  0  0  0  0  0  0  0  0
  -28.5873   -3.3783   -8.2151 C   0  0  0  0  0  0  0  0  0  0  0  0
  -25.6810   -1.6339  -10.2055 O   0  0  0  0  0  0  0  0  0  0  0  0
  -26.8120   -1.5589  -10.6670 C   0  0  0  0  0  0  0  0  0  0  0  0
  -27.9934   -1.8091   -9.9848 N   0  0  0  0  0  0  0  0  0  0  0  0
  -28.8475   -1.8376  -10.5256 H   0  0  0  0  0  0  0  0  0  0  0  0
  -26.9123   -1.1829  -12.1085 C   0  0  0  0  0  0  0  0  0  0  0  0
  -27.4145   -2.1437  -13.1562 C   0  0  0  0  0  0  0  0  0  0  0  0
  -25.9873   -1.6707  -13.1912 C   0  0  0  0  0  0  0  0  0  0  0  0
  -29.2369   -8.6188   -6.2179 C   0  0  0  0  0  0  0  0  0  0  0  0
  -27.8590   -9.0594   -5.7897 C   0  0  0  0  0  0  0  0  0  0  0  0
  -27.0871   -9.9052   -6.5932 C   0  0  0  0  0  0  0  0  0  0  0  0
  -25.8323  -10.3524   -6.1572 C   0  0  0  0  0  0  0  0  0  0  0  0
  -25.3034   -9.9649   -4.9126 C   0  0  0  0  0  0  0  0  0  0  0  0
  -26.0703   -9.0726   -4.1437 C   0  0  0  0  0  0  0  0  0  0  0  0
  -27.3243   -8.6275   -4.5716 C   0  0  0  0  0  0  0  0  0  0  0  0
  -24.0186  -10.4924   -4.4161 C   0  0  0  0  0  0  0  0  0  0  0  0
  -22.9591  -10.8518   -5.2353 C   0  0  0  0  0  0  0  0  0  0  0  0
  -21.7816  -11.3611   -4.8045 N   0  0  0  0  0  0  0  0  0  0  0  0
  -21.6640  -11.5092   -3.4785 C   0  0  0  0  0  0  0  0  0  0  0  0
  -22.5984  -11.2008   -2.5715 N   0  0  0  0  0  0  0  0  0  0  0  0
  -23.7533  -10.7039   -3.0696 C   0  0  0  0  0  0  0  0  0  0  0  0
 12 13  2  0  0  0
 13 14  1  0  0  0
 13 16  1  0  0  0
 14  6  1  0  0  0
 14 15  1  0  0  0
  6  7  1  0  0  0
  6 11  2  0  0  0
  7  8  2  0  0  0
  8  9  1  0  0  0
  9 10  2  0  0  0
 10  1  1  0  0  0
 10 11  1  0  0  0
  1  2  2  0  0  0
  1  5  1  0  0  0
  2  3  1  0  0  0
  3 19  1  0  0  0
  3  4  1  0  0  0
 19 20  1  0  0  0
 20 21  1  0  0  0
 20 25  2  0  0  0
 21 22  2  0  0  0
 22 23  1  0  0  0
 23 26  1  0  0  0
 23 24  2  0  0  0
 26 27  1  0  0  0
 26 31  2  0  0  0
 27 28  2  0  0  0
 28 29  1  0  0  0
 29 30  2  0  0  0
 30 31  1  0  0  0
 24 25  1  0  0  0
  4  5  2  0  0  0
 16 17  1  0  0  0
 16 18  1  0  0  0
 17 18  1  0  0  0
M  END
> <minimizedAffinity>
-9.44892

$$$$
