CHEMBL3934111


 32 36  0  0  0  0  0  0  0  0999 V2000
  -16.3359    2.1208  -15.5598 C   0  0  0  0  0  0  0  0  0  0  0  0
  -16.8888    0.8554  -15.2850 C   0  0  0  0  0  0  0  0  0  0  0  0
  -18.2530    0.6690  -14.9917 C   0  0  0  0  0  0  0  0  0  0  0  0
  -19.1028    1.7877  -14.9616 C   0  0  0  0  0  0  0  0  0  0  0  0
  -20.4935    2.0337  -14.7522 C   0  0  0  0  0  0  0  0  0  0  0  0
  -20.7683    3.3462  -14.8274 N   0  0  0  0  0  0  0  0  0  0  0  0
  -19.5860    3.9164  -15.0929 N   0  0  0  0  0  0  0  0  0  0  0  0
  -18.5475    3.0367  -15.1974 C   0  0  0  0  0  0  0  0  0  0  0  0
  -17.1914    3.2380  -15.4907 C   0  0  0  0  0  0  0  0  0  0  0  0
  -19.5513    4.9211  -15.2043 H   0  0  0  0  0  0  0  0  0  0  0  0
  -14.7232    2.4361  -17.3667 C   0  0  0  0  0  0  0  0  0  0  0  0
  -14.9681    2.2818  -15.9263 N   0  0  0  0  0  0  0  0  0  0  0  0
  -13.8911    2.5712  -15.0530 C   0  0  0  0  0  0  0  0  0  0  0  0
  -13.3824    1.6373  -14.1378 C   0  0  0  0  0  0  0  0  0  0  0  0
  -12.3371    1.9685  -13.2711 C   0  0  0  0  0  0  0  0  0  0  0  0
  -11.7582    3.2351  -13.3250 C   0  0  0  0  0  0  0  0  0  0  0  0
  -12.1870    4.1659  -14.2685 C   0  0  0  0  0  0  0  0  0  0  0  0
  -11.6835    5.4735  -14.2445 N   0  0  0  0  0  0  0  0  0  0  0  0
  -13.2846    3.8430  -15.0779 C   0  0  0  0  0  0  0  0  0  0  0  0
  -10.7317    5.5390  -13.8990 H   0  0  0  0  0  0  0  0  0  0  0  0
  -11.8129    5.9754  -15.1177 H   0  0  0  0  0  0  0  0  0  0  0  0
  -21.4918    1.0297  -14.5075 C   0  0  0  0  0  0  0  0  0  0  0  0
  -22.5888    1.2386  -13.7571 C   0  0  0  0  0  0  0  0  0  0  0  0
  -23.6614    0.2765  -13.4655 C   0  0  0  0  0  0  0  0  0  0  0  0
  -24.1806   -0.6154  -14.4305 C   0  0  0  0  0  0  0  0  0  0  0  0
  -25.1532   -1.5645  -14.0876 C   0  0  0  0  0  0  0  0  0  0  0  0
  -25.5818   -1.6036  -12.7793 C   0  0  0  0  0  0  0  0  0  0  0  0
  -25.0818   -0.7429  -11.8329 C   0  0  0  0  0  0  0  0  0  0  0  0
  -24.1236    0.2014  -12.1409 C   0  0  0  0  0  0  0  0  0  0  0  0
  -25.6273   -0.9470  -10.6037 O   0  0  0  0  0  0  0  0  0  0  0  0
  -26.5486   -2.0183  -10.8916 C   0  0  0  0  0  0  0  0  0  0  0  0
  -26.5039   -2.4599  -12.2654 O   0  0  0  0  0  0  0  0  0  0  0  0
 11 12  1  0  0  0
 12 13  1  0  0  0
 12  1  1  0  0  0
 13 14  1  0  0  0
 13 19  2  0  0  0
 14 15  2  0  0  0
 15 16  1  0  0  0
 16 17  2  0  0  0
 17 18  1  0  0  0
 17 19  1  0  0  0
 18 20  1  0  0  0
 18 21  1  0  0  0
  1  2  1  0  0  0
  1  9  2  0  0  0
  2  3  2  0  0  0
  3  4  1  0  0  0
  4  5  1  0  0  0
  4  8  2  0  0  0
  5 22  1  0  0  0
  5  6  2  0  0  0
 22 23  2  0  0  0
 23 24  1  0  0  0
 24 25  1  0  0  0
 24 29  2  0  0  0
 25 26  2  0  0  0
 26 27  1  0  0  0
 27 28  2  0  0  0
 27 32  1  0  0  0
 28 29  1  0  0  0
 28 30  1  0  0  0
 30 31  1  0  0  0
 31 32  1  0  0  0
  6  7  1  0  0  0
  7  8  1  0  0  0
  7 10  1  0  0  0
  8  9  1  0  0  0
M  END
> <minimizedAffinity>
-10.81941

$$$$
