CHEMBL404223


 31 34  0  0  0  0  0  0  0  0999 V2000
  -29.5742   -8.7539   -7.1413 C   0  0  0  0  0  0  0  0  0  0  0  0
  -28.6988   -8.3389   -6.1264 C   0  0  0  0  0  0  0  0  0  0  0  0
  -28.9295   -7.1829   -5.3809 C   0  0  0  0  0  0  0  0  0  0  0  0
  -30.0174   -6.3607   -5.6553 C   0  0  0  0  0  0  0  0  0  0  0  0
  -30.9392   -6.7781   -6.6120 C   0  0  0  0  0  0  0  0  0  0  0  0
  -30.7293   -7.9749   -7.3226 C   0  0  0  0  0  0  0  0  0  0  0  0
  -27.1464   -7.8266   -9.3589 N   0  0  0  0  0  0  0  0  0  0  0  0
  -27.3860   -9.1153   -9.6503 C   0  0  0  0  0  0  0  0  0  0  0  0
  -26.7196   -9.7180  -10.6336 N   0  0  0  0  0  0  0  0  0  0  0  0
  -27.1630  -10.9827  -10.5821 N   0  0  0  0  0  0  0  0  0  0  0  0
  -28.0912  -11.2063   -9.6147 C   0  0  0  0  0  0  0  0  0  0  0  0
  -28.6561  -12.3995   -9.3534 N   0  0  0  0  0  0  0  0  0  0  0  0
  -29.5423  -12.3423   -8.3436 C   0  0  0  0  0  0  0  0  0  0  0  0
  -29.8810  -11.1961   -7.6389 C   0  0  0  0  0  0  0  0  0  0  0  0
  -29.2647   -9.9557   -7.9342 C   0  0  0  0  0  0  0  0  0  0  0  0
  -28.3059   -9.9839   -8.9802 C   0  0  0  0  0  0  0  0  0  0  0  0
  -26.3332   -7.4325   -9.8204 H   0  0  0  0  0  0  0  0  0  0  0  0
  -27.2298   -7.5215   -8.3950 H   0  0  0  0  0  0  0  0  0  0  0  0
  -26.7916  -11.6645  -11.2290 H   0  0  0  0  0  0  0  0  0  0  0  0
  -30.2103   -5.1223   -4.9964 N   0  0  0  0  0  0  0  0  0  0  0  0
  -29.7434   -3.9179   -5.4915 C   0  0  0  0  0  0  0  0  0  0  0  0
  -29.2545   -3.7731   -6.6084 O   0  0  0  0  0  0  0  0  0  0  0  0
  -29.8475   -2.8903   -4.5613 N   0  0  0  0  0  0  0  0  0  0  0  0
  -30.9529   -5.0621   -4.3149 H   0  0  0  0  0  0  0  0  0  0  0  0
  -29.6868   -3.1961   -3.6121 H   0  0  0  0  0  0  0  0  0  0  0  0
  -29.3068   -1.6283   -4.9090 C   0  0  0  0  0  0  0  0  0  0  0  0
  -27.9682   -1.3201   -4.6259 C   0  0  0  0  0  0  0  0  0  0  0  0
  -27.5068   -0.0125   -4.7647 C   0  0  0  0  0  0  0  0  0  0  0  0
  -28.3733    0.9838   -5.2032 C   0  0  0  0  0  0  0  0  0  0  0  0
  -29.6904    0.6660   -5.5451 C   0  0  0  0  0  0  0  0  0  0  0  0
  -30.1532   -0.6467   -5.4259 C   0  0  0  0  0  0  0  0  0  0  0  0
  7  8  1  0  0  0
  7 17  1  0  0  0
  7 18  1  0  0  0
  8  9  2  0  0  0
  8 16  1  0  0  0
  9 10  1  0  0  0
 10 11  1  0  0  0
 10 19  1  0  0  0
 11 12  1  0  0  0
 11 16  2  0  0  0
 12 13  2  0  0  0
 13 14  1  0  0  0
 14 15  2  0  0  0
 15  1  1  0  0  0
 15 16  1  0  0  0
  1  2  1  0  0  0
  1  6  2  0  0  0
  2  3  2  0  0  0
  3  4  1  0  0  0
  4 20  1  0  0  0
  4  5  2  0  0  0
 20 21  1  0  0  0
 20 24  1  0  0  0
 21 22  2  0  0  0
 21 23  1  0  0  0
 23 26  1  0  0  0
 23 25  1  0  0  0
 26 27  1  0  0  0
 26 31  2  0  0  0
 27 28  2  0  0  0
 28 29  1  0  0  0
 29 30  2  0  0  0
 30 31  1  0  0  0
  5  6  1  0  0  0
M  END
> <minimizedAffinity>
-8.82132

$$$$
