CHEMBL2016919


 32 36  0  0  0  0  0  0  0  0999 V2000
  -30.6651   -4.5246   -4.7823 O   0  0  0  0  0  0  0  0  0  0  0  0
  -29.7633   -4.8490   -5.5598 C   0  0  0  0  0  0  0  0  0  0  0  0
  -29.0357   -3.9032   -6.2977 N   0  0  0  0  0  0  0  0  0  0  0  0
  -29.4085   -2.4903   -6.0600 C   0  0  0  0  0  0  0  0  0  0  0  0
  -28.5907   -1.3802   -6.7508 C   0  0  0  0  0  0  0  0  0  0  0  0
  -27.9176   -1.8878   -7.9524 C   0  0  0  0  0  0  0  0  0  0  0  0
  -27.2518   -1.1270   -8.8671 N   0  0  0  0  0  0  0  0  0  0  0  0
  -26.8372   -1.9747   -9.7991 C   0  0  0  0  0  0  0  0  0  0  0  0
  -27.2098   -3.2617   -9.4776 N   0  0  0  0  0  0  0  0  0  0  0  0
  -27.8858   -3.2076   -8.2973 C   0  0  0  0  0  0  0  0  0  0  0  0
  -28.4863   -4.3337   -7.5874 C   0  0  0  0  0  0  0  0  0  0  0  0
  -27.0354   -4.0760  -10.0584 H   0  0  0  0  0  0  0  0  0  0  0  0
  -26.1592   -1.7245  -11.0182 C   0  0  0  0  0  0  0  0  0  0  0  0
  -24.8945   -1.2745  -10.9513 C   0  0  0  0  0  0  0  0  0  0  0  0
  -24.1803   -0.8547  -12.1489 C   0  0  0  0  0  0  0  0  0  0  0  0
  -22.8884   -0.3384  -12.0708 C   0  0  0  0  0  0  0  0  0  0  0  0
  -22.2797    0.1437  -13.2219 C   0  0  0  0  0  0  0  0  0  0  0  0
  -21.0499    0.6673  -13.1448 F   0  0  0  0  0  0  0  0  0  0  0  0
  -22.9334    0.1088  -14.4508 C   0  0  0  0  0  0  0  0  0  0  0  0
  -24.2146   -0.4355  -14.5403 C   0  0  0  0  0  0  0  0  0  0  0  0
  -24.8357   -0.9139  -13.3883 C   0  0  0  0  0  0  0  0  0  0  0  0
  -26.1290   -1.4436  -13.4566 N   0  0  0  0  0  0  0  0  0  0  0  0
  -26.8322   -1.8760  -12.3548 C   0  0  0  0  0  0  0  0  0  0  0  0
  -27.9570   -2.3466  -12.4707 O   0  0  0  0  0  0  0  0  0  0  0  0
  -26.6023   -1.5237  -14.3446 H   0  0  0  0  0  0  0  0  0  0  0  0
  -29.3916   -6.3326   -5.7372 C   0  0  0  0  0  0  0  0  0  0  0  0
  -30.2117   -6.9648   -6.7972 N   0  0  0  0  0  0  0  0  0  0  0  0
  -29.4382   -8.0068   -7.4978 C   0  0  0  0  0  0  0  0  0  0  0  0
  -30.2666   -8.6935   -8.5843 C   0  0  0  0  0  0  0  0  0  0  0  0
  -31.5600   -9.2615   -8.0163 C   0  0  0  0  0  0  0  0  0  0  0  0
  -32.3239   -8.1743   -7.2719 C   0  0  0  0  0  0  0  0  0  0  0  0
  -31.4429   -7.5130   -6.2122 C   0  0  0  0  0  0  0  0  0  0  0  0
  1  2  2  0  0  0
  2 26  1  0  0  0
  2  3  1  0  0  0
 26 27  1  0  0  0
 27 28  1  0  0  0
 27 32  1  0  0  0
 28 29  1  0  0  0
 29 30  1  0  0  0
 30 31  1  0  0  0
 31 32  1  0  0  0
  3  4  1  0  0  0
  3 11  1  0  0  0
  4  5  1  0  0  0
  5  6  1  0  0  0
  6  7  1  0  0  0
  6 10  2  0  0  0
  7  8  2  0  0  0
  8 13  1  0  0  0
  8  9  1  0  0  0
 13 14  2  0  0  0
 13 23  1  0  0  0
 14 15  1  0  0  0
 15 16  1  0  0  0
 15 21  2  0  0  0
 16 17  2  0  0  0
 17 18  1  0  0  0
 17 19  1  0  0  0
 19 20  2  0  0  0
 20 21  1  0  0  0
 21 22  1  0  0  0
 22 23  1  0  0  0
 22 25  1  0  0  0
 23 24  2  0  0  0
  9 10  1  0  0  0
  9 12  1  0  0  0
 10 11  1  0  0  0
M  END
> <minimizedAffinity>
-10.68952

$$$$
