CHEMBL3892076


 46 51  0  0  0  0  0  0  0  0999 V2000
  -15.5180    0.3471  -15.1167 C   0  0  0  0  0  0  0  0  0  0  0  0
  -14.2531    0.6181  -15.6098 C   0  0  0  0  0  0  0  0  0  0  0  0
  -13.9790    1.8518  -16.1939 C   0  0  0  0  0  0  0  0  0  0  0  0
  -14.9731    2.8163  -16.4367 C   0  0  0  0  0  0  0  0  0  0  0  0
  -16.2914    2.5500  -15.9067 C   0  0  0  0  0  0  0  0  0  0  0  0
  -17.3837    3.4578  -16.0127 C   0  0  0  0  0  0  0  0  0  0  0  0
  -18.5854    3.2916  -15.3239 C   0  0  0  0  0  0  0  0  0  0  0  0
  -18.7851    2.1489  -14.5783 C   0  0  0  0  0  0  0  0  0  0  0  0
  -17.7926    1.1689  -14.5457 C   0  0  0  0  0  0  0  0  0  0  0  0
  -16.5412    1.3306  -15.1989 C   0  0  0  0  0  0  0  0  0  0  0  0
  -14.5852    4.0802  -17.1488 C   0  0  0  0  0  0  0  0  0  0  0  0
  -15.1842    4.4268  -18.3884 C   0  0  0  0  0  0  0  0  0  0  0  0
  -14.7951    5.5277  -19.1439 C   0  0  0  0  0  0  0  0  0  0  0  0
  -13.8489    6.4184  -18.6601 C   0  0  0  0  0  0  0  0  0  0  0  0
  -13.3503    6.1843  -17.3691 C   0  0  0  0  0  0  0  0  0  0  0  0
  -12.5395    6.9388  -16.5670 N   0  0  0  0  0  0  0  0  0  0  0  0
  -12.2211    6.3839  -15.4015 N   0  0  0  0  0  0  0  0  0  0  0  0
  -12.8713    5.2276  -15.4174 C   0  0  0  0  0  0  0  0  0  0  0  0
  -12.7685    4.4047  -14.3632 N   0  0  0  0  0  0  0  0  0  0  0  0
  -13.6564    5.0378  -16.6122 C   0  0  0  0  0  0  0  0  0  0  0  0
  -12.1588    7.8552  -16.7600 H   0  0  0  0  0  0  0  0  0  0  0  0
  -12.0936    4.6757  -13.6568 H   0  0  0  0  0  0  0  0  0  0  0  0
  -12.8315    3.4018  -14.4947 H   0  0  0  0  0  0  0  0  0  0  0  0
  -13.5846    7.4884  -19.4960 O   0  0  0  0  0  0  0  0  0  0  0  0
  -14.3847    7.5623  -20.6688 C   0  0  0  0  0  0  0  0  0  0  0  0
  -15.1276    8.8907  -20.6935 C   0  0  0  0  0  0  0  0  0  0  0  0
  -16.5555    8.6482  -21.1912 C   0  0  0  0  0  0  0  0  0  0  0  0
  -17.1878    9.8386  -21.7719 N   0  0  0  0  0  0  0  0  0  0  0  0
  -16.9153   11.0271  -20.9414 C   0  0  0  0  0  0  0  0  0  0  0  0
  -18.0179   11.0299  -19.9007 C   0  0  0  0  0  0  0  0  0  0  0  0
  -19.2256   10.5759  -20.6942 C   0  0  0  0  0  0  0  0  0  0  0  0
  -18.6571    9.7338  -21.8304 C   0  0  0  0  0  0  0  0  0  0  0  0
  -15.3020   -2.5816  -12.9379 N   0  0  0  0  0  0  0  0  0  0  0  0
  -15.0707   -1.2573  -13.3076 C   0  0  0  0  0  0  0  0  0  0  0  0
  -14.4500   -0.4317  -12.6453 O   0  0  0  0  0  0  0  0  0  0  0  0
  -15.6988   -0.9396  -14.5055 N   0  0  0  0  0  0  0  0  0  0  0  0
  -16.0272   -3.0742  -13.4308 H   0  0  0  0  0  0  0  0  0  0  0  0
  -16.6427   -1.2885  -14.5396 H   0  0  0  0  0  0  0  0  0  0  0  0
  -11.7964   -5.5869  -11.0863 C   0  0  0  0  0  0  0  0  0  0  0  0
  -13.0092   -4.7198  -10.8950 C   0  0  0  0  0  0  0  0  0  0  0  0
  -13.5817   -4.6095   -9.6218 C   0  0  0  0  0  0  0  0  0  0  0  0
  -14.6872   -3.7966   -9.4258 C   0  0  0  0  0  0  0  0  0  0  0  0
  -15.2441   -3.0989  -10.4965 C   0  0  0  0  0  0  0  0  0  0  0  0
  -16.2182   -2.2306  -10.1931 F   0  0  0  0  0  0  0  0  0  0  0  0
  -14.7394   -3.2246  -11.7946 C   0  0  0  0  0  0  0  0  0  0  0  0
  -13.5889   -4.0195  -11.9768 C   0  0  0  0  0  0  0  0  0  0  0  0
 39 40  1  0  0  0
 40 41  1  0  0  0
 40 46  2  0  0  0
 41 42  2  0  0  0
 42 43  1  0  0  0
 43 44  1  0  0  0
 43 45  2  0  0  0
 45 33  1  0  0  0
 45 46  1  0  0  0
 33 34  1  0  0  0
 33 37  1  0  0  0
 34 35  2  0  0  0
 34 36  1  0  0  0
 36  1  1  0  0  0
 36 38  1  0  0  0
  1  2  1  0  0  0
  1 10  2  0  0  0
  2  3  2  0  0  0
  3  4  1  0  0  0
  4 11  1  0  0  0
  4  5  2  0  0  0
 11 12  1  0  0  0
 11 20  2  0  0  0
 12 13  2  0  0  0
 13 14  1  0  0  0
 14 24  1  0  0  0
 14 15  2  0  0  0
 24 25  1  0  0  0
 25 26  1  0  0  0
 26 27  1  0  0  0
 27 28  1  0  0  0
 28 29  1  0  0  0
 28 32  1  0  0  0
 29 30  1  0  0  0
 30 31  1  0  0  0
 31 32  1  0  0  0
 15 16  1  0  0  0
 15 20  1  0  0  0
 16 17  1  0  0  0
 16 21  1  0  0  0
 17 18  2  0  0  0
 18 19  1  0  0  0
 18 20  1  0  0  0
 19 22  1  0  0  0
 19 23  1  0  0  0
  5  6  1  0  0  0
  5 10  1  0  0  0
  6  7  2  0  0  0
  7  8  1  0  0  0
  8  9  2  0  0  0
  9 10  1  0  0  0
M  END
> <minimizedAffinity>
-9.05399

$$$$
