CHEMBL2022852


 41 45  0  0  0  0  0  0  0  0999 V2000
  -29.0584   -2.8996   -5.4688 C   0  0  0  0  0  0  0  0  0  0  0  0
  -28.8532   -1.6230   -4.9751 C   0  0  0  0  0  0  0  0  0  0  0  0
  -28.3704   -0.5911   -5.6819 N   0  0  0  0  0  0  0  0  0  0  0  0
  -28.0119   -0.7695   -6.9679 C   0  0  0  0  0  0  0  0  0  0  0  0
  -27.6001    0.4007   -7.5843 N   0  0  0  0  0  0  0  0  0  0  0  0
  -28.0934   -2.0595   -7.5770 C   0  0  0  0  0  0  0  0  0  0  0  0
  -27.6739   -2.5582   -8.9013 C   0  0  0  0  0  0  0  0  0  0  0  0
  -27.9918   -3.8881   -9.0695 C   0  0  0  0  0  0  0  0  0  0  0  0
  -28.8146   -4.5436   -7.7511 S   0  0  0  0  0  0  0  0  0  0  0  0
  -28.6608   -3.1007   -6.8090 C   0  0  0  0  0  0  0  0  0  0  0  0
  -27.8173    1.2004   -7.0002 H   0  0  0  0  0  0  0  0  0  0  0  0
  -27.8462    0.4826   -8.5614 H   0  0  0  0  0  0  0  0  0  0  0  0
  -26.9382   -1.8627   -9.9649 C   0  0  0  0  0  0  0  0  0  0  0  0
  -27.6076   -1.4536  -11.1137 C   0  0  0  0  0  0  0  0  0  0  0  0
  -26.9229   -0.8879  -12.1797 C   0  0  0  0  0  0  0  0  0  0  0  0
  -25.5731   -0.5572  -12.0683 C   0  0  0  0  0  0  0  0  0  0  0  0
  -24.8909   -0.9072  -10.9034 C   0  0  0  0  0  0  0  0  0  0  0  0
  -25.5664   -1.5702   -9.8661 C   0  0  0  0  0  0  0  0  0  0  0  0
  -24.8971    0.1369  -13.0940 N   0  0  0  0  0  0  0  0  0  0  0  0
  -23.5437    0.4139  -13.0587 C   0  0  0  0  0  0  0  0  0  0  0  0
  -22.7613    0.0008  -12.2049 O   0  0  0  0  0  0  0  0  0  0  0  0
  -23.1564    1.2434  -14.0959 N   0  0  0  0  0  0  0  0  0  0  0  0
  -25.3306    0.1575  -14.0079 H   0  0  0  0  0  0  0  0  0  0  0  0
  -23.8457    1.9355  -14.3533 H   0  0  0  0  0  0  0  0  0  0  0  0
  -21.7990    1.5909  -14.2714 C   0  0  0  0  0  0  0  0  0  0  0  0
  -21.3469    2.9034  -14.0606 C   0  0  0  0  0  0  0  0  0  0  0  0
  -20.0087    3.2375  -14.2723 C   0  0  0  0  0  0  0  0  0  0  0  0
  -19.1188    2.2606  -14.7057 C   0  0  0  0  0  0  0  0  0  0  0  0
  -19.5735    0.9613  -14.9111 C   0  0  0  0  0  0  0  0  0  0  0  0
  -18.7203    0.0313  -15.3599 F   0  0  0  0  0  0  0  0  0  0  0  0
  -20.8996    0.6107  -14.6788 C   0  0  0  0  0  0  0  0  0  0  0  0
  -29.9107   -5.8550   -3.5889 N   0  0  0  0  0  0  0  0  0  0  0  0
  -29.0427   -5.1486   -4.3765 C   0  0  0  0  0  0  0  0  0  0  0  0
  -29.6527   -3.9384   -4.6497 C   0  0  0  0  0  0  0  0  0  0  0  0
  -30.8942   -4.0332   -3.9765 C   0  0  0  0  0  0  0  0  0  0  0  0
  -31.0416   -5.1837   -3.3166 N   0  0  0  0  0  0  0  0  0  0  0  0
  -29.7273   -7.2009   -3.0963 C   0  0  0  0  0  0  0  0  0  0  0  0
  -29.0887   -8.1456   -4.1206 C   0  0  0  0  0  0  0  0  0  0  0  0
  -28.3969  -10.5524   -3.6403 C   0  0  0  0  0  0  0  0  0  0  0  0
  -28.0007   -9.0783   -3.5511 C   0  0  0  0  0  0  0  0  0  0  0  0
  -26.6797   -8.8501   -4.2895 C   0  0  0  0  0  0  0  0  0  0  0  0
 39 40  1  0  0  0
 40 41  1  0  0  0
 40 38  1  0  0  0
 38 37  1  0  0  0
 37 32  1  0  0  0
 32 33  1  0  0  0
 32 36  1  0  0  0
 33 34  2  0  0  0
 34  1  1  0  0  0
 34 35  1  0  0  0
  1  2  1  0  0  0
  1 10  2  0  0  0
  2  3  2  0  0  0
  3  4  1  0  0  0
  4  5  1  0  0  0
  4  6  2  0  0  0
  5 11  1  0  0  0
  5 12  1  0  0  0
  6  7  1  0  0  0
  6 10  1  0  0  0
  7 13  1  0  0  0
  7  8  2  0  0  0
 13 14  1  0  0  0
 13 18  2  0  0  0
 14 15  2  0  0  0
 15 16  1  0  0  0
 16 19  1  0  0  0
 16 17  2  0  0  0
 19 20  1  0  0  0
 19 23  1  0  0  0
 20 21  2  0  0  0
 20 22  1  0  0  0
 22 25  1  0  0  0
 22 24  1  0  0  0
 25 26  1  0  0  0
 25 31  2  0  0  0
 26 27  2  0  0  0
 27 28  1  0  0  0
 28 29  2  0  0  0
 29 30  1  0  0  0
 29 31  1  0  0  0
 17 18  1  0  0  0
  8  9  1  0  0  0
  9 10  1  0  0  0
 35 36  2  0  0  0
M  END
> <minimizedAffinity>
-8.55370

$$$$
