CHEMBL3901866


 26 29  0  0  0  0  0  0  0  0999 V2000
  -29.8479   -4.1853   -4.4533 C   0  0  0  0  0  0  0  0  0  0  0  0
  -30.9665   -5.0278   -4.3384 C   0  0  0  0  0  0  0  0  0  0  0  0
  -30.9945   -6.3036   -4.9550 C   0  0  0  0  0  0  0  0  0  0  0  0
  -29.9447   -6.6367   -5.8441 C   0  0  0  0  0  0  0  0  0  0  0  0
  -29.4691   -7.7357   -6.6415 C   0  0  0  0  0  0  0  0  0  0  0  0
  -28.8981   -7.1882   -7.7464 N   0  0  0  0  0  0  0  0  0  0  0  0
  -28.3580   -6.0721   -7.2255 N   0  0  0  0  0  0  0  0  0  0  0  0
  -28.9638   -5.6830   -6.0597 C   0  0  0  0  0  0  0  0  0  0  0  0
  -28.7725   -4.5579   -5.2705 C   0  0  0  0  0  0  0  0  0  0  0  0
  -27.6568   -5.5832   -7.7593 H   0  0  0  0  0  0  0  0  0  0  0  0
  -30.3872   -2.7316   -2.6538 C   0  0  0  0  0  0  0  0  0  0  0  0
  -29.8128   -2.8172   -3.8721 C   0  0  0  0  0  0  0  0  0  0  0  0
  -29.3051   -1.5918   -4.5481 C   0  0  0  0  0  0  0  0  0  0  0  0
  -30.1647   -0.7101   -5.2297 C   0  0  0  0  0  0  0  0  0  0  0  0
  -29.6797    0.4392   -5.8567 C   0  0  0  0  0  0  0  0  0  0  0  0
  -28.3220    0.7395   -5.8039 C   0  0  0  0  0  0  0  0  0  0  0  0
  -27.4510   -0.1195   -5.1388 C   0  0  0  0  0  0  0  0  0  0  0  0
  -27.9382   -1.2753   -4.5157 C   0  0  0  0  0  0  0  0  0  0  0  0
  -28.7433   -8.9196   -6.1916 C   0  0  0  0  0  0  0  0  0  0  0  0
  -28.7424   -9.3160   -4.8985 C   0  0  0  0  0  0  0  0  0  0  0  0
  -27.4883   -9.6132   -4.1538 C   0  0  0  0  0  0  0  0  0  0  0  0
  -27.2756  -10.8922   -3.5911 C   0  0  0  0  0  0  0  0  0  0  0  0
  -26.0077  -11.2814   -3.1368 C   0  0  0  0  0  0  0  0  0  0  0  0
  -24.9354  -10.3975   -3.2397 C   0  0  0  0  0  0  0  0  0  0  0  0
  -25.1340   -9.1258   -3.7744 C   0  0  0  0  0  0  0  0  0  0  0  0
  -26.4028   -8.7397   -4.2379 C   0  0  0  0  0  0  0  0  0  0  0  0
 11 12  2  0  0  0
 12 13  1  0  0  0
 12  1  1  0  0  0
 13 14  1  0  0  0
 13 18  2  0  0  0
 14 15  2  0  0  0
 15 16  1  0  0  0
 16 17  2  0  0  0
 17 18  1  0  0  0
  1  2  1  0  0  0
  1  9  2  0  0  0
  2  3  2  0  0  0
  3  4  1  0  0  0
  4  5  1  0  0  0
  4  8  2  0  0  0
  5 19  1  0  0  0
  5  6  2  0  0  0
 19 20  2  0  0  0
 20 21  1  0  0  0
 21 22  1  0  0  0
 21 26  2  0  0  0
 22 23  2  0  0  0
 23 24  1  0  0  0
 24 25  2  0  0  0
 25 26  1  0  0  0
  6  7  1  0  0  0
  7  8  1  0  0  0
  7 10  1  0  0  0
  8  9  1  0  0  0
M  END
> <minimizedAffinity>
-8.99340

$$$$
