CHEMBL4543095


 38 42  0  0  0  0  0  0  0  0999 V2000
  -15.4413    2.9790  -15.3744 C   0  0  0  0  0  0  0  0  0  0  0  0
  -14.7459    2.0642  -14.5595 C   0  0  0  0  0  0  0  0  0  0  0  0
  -14.4536    0.7230  -15.0837 C   0  0  0  0  0  0  0  0  0  0  0  0
  -13.4520   -0.1507  -14.6605 C   0  0  0  0  0  0  0  0  0  0  0  0
  -12.2200    0.1908  -15.1577 C   0  0  0  0  0  0  0  0  0  0  0  0
  -12.2623    1.0553  -16.2364 C   0  0  0  0  0  0  0  0  0  0  0  0
  -13.4432    1.0567  -17.0292 C   0  0  0  0  0  0  0  0  0  0  0  0
  -14.6748    0.7587  -16.3995 C   0  0  0  0  0  0  0  0  0  0  0  0
  -15.9300    1.1604  -16.7354 N   0  0  0  0  0  0  0  0  0  0  0  0
  -16.4166    2.1898  -15.9813 C   0  0  0  0  0  0  0  0  0  0  0  0
  -13.2586    6.2160  -17.6667 C   0  0  0  0  0  0  0  0  0  0  0  0
  -12.8644    5.5627  -16.5422 C   0  0  0  0  0  0  0  0  0  0  0  0
  -13.7459    4.7364  -15.8962 C   0  0  0  0  0  0  0  0  0  0  0  0
  -14.9123    4.1167  -16.3878 C   0  0  0  0  0  0  0  0  0  0  0  0
  -15.2729    4.6961  -17.6291 C   0  0  0  0  0  0  0  0  0  0  0  0
  -14.4676    5.7974  -18.2330 C   0  0  0  0  0  0  0  0  0  0  0  0
  -12.1677    8.3341  -17.0071 C   0  0  0  0  0  0  0  0  0  0  0  0
  -12.3807    7.2250  -17.8289 O   0  0  0  0  0  0  0  0  0  0  0  0
  -11.3839    2.1095  -16.3375 O   0  0  0  0  0  0  0  0  0  0  0  0
  -10.8394    2.5206  -15.0620 C   0  0  0  0  0  0  0  0  0  0  0  0
  -17.7356    2.7148  -16.0996 N   0  0  0  0  0  0  0  0  0  0  0  0
  -17.6910    3.7090  -16.2982 H   0  0  0  0  0  0  0  0  0  0  0  0
  -18.8760    2.3685  -15.3519 C   0  0  0  0  0  0  0  0  0  0  0  0
  -19.2532    1.0236  -15.2754 C   0  0  0  0  0  0  0  0  0  0  0  0
  -20.4888    0.6506  -14.7339 C   0  0  0  0  0  0  0  0  0  0  0  0
  -21.3600    1.6051  -14.2121 C   0  0  0  0  0  0  0  0  0  0  0  0
  -20.9189    2.9310  -14.1493 C   0  0  0  0  0  0  0  0  0  0  0  0
  -19.6755    3.3011  -14.6951 C   0  0  0  0  0  0  0  0  0  0  0  0
  -22.7102    1.2992  -13.7690 N   0  0  0  0  0  0  0  0  0  0  0  0
  -23.0317    0.3987  -12.7901 C   0  0  0  0  0  0  0  0  0  0  0  0
  -22.2578   -0.1561  -12.0331 O   0  0  0  0  0  0  0  0  0  0  0  0
  -23.4230    1.8094  -14.2354 H   0  0  0  0  0  0  0  0  0  0  0  0
  -24.5261    0.1401  -12.6353 C   0  0  0  0  0  0  0  0  0  0  0  0
  -24.9230   -1.2705  -12.7742 N   0  0  0  0  0  0  0  0  0  0  0  0
  -25.2940   -1.6826  -14.1237 C   0  0  0  0  0  0  0  0  0  0  0  0
  -26.8087   -1.6557  -14.1697 C   0  0  0  0  0  0  0  0  0  0  0  0
  -27.2327   -1.9710  -12.7483 C   0  0  0  0  0  0  0  0  0  0  0  0
  -26.0183   -1.6722  -11.8772 C   0  0  0  0  0  0  0  0  0  0  0  0
 17 18  1  0  0  0
 18 11  1  0  0  0
 11 12  1  0  0  0
 11 16  2  0  0  0
 12 13  2  0  0  0
 13 14  1  0  0  0
 14  1  1  0  0  0
 14 15  2  0  0  0
  1  2  1  0  0  0
  1 10  2  0  0  0
  2  3  2  0  0  0
  3  4  1  0  0  0
  3  8  1  0  0  0
  4  5  2  0  0  0
  5  6  1  0  0  0
  6 19  1  0  0  0
  6  7  2  0  0  0
 19 20  1  0  0  0
  7  8  1  0  0  0
  8  9  2  0  0  0
  9 10  1  0  0  0
 10 21  1  0  0  0
 21 23  1  0  0  0
 21 22  1  0  0  0
 23 24  1  0  0  0
 23 28  2  0  0  0
 24 25  2  0  0  0
 25 26  1  0  0  0
 26 29  1  0  0  0
 26 27  2  0  0  0
 29 30  1  0  0  0
 29 32  1  0  0  0
 30 31  2  0  0  0
 30 33  1  0  0  0
 33 34  1  0  0  0
 34 35  1  0  0  0
 34 38  1  0  0  0
 35 36  1  0  0  0
 36 37  1  0  0  0
 37 38  1  0  0  0
 27 28  1  0  0  0
 15 16  1  0  0  0
M  END
> <minimizedAffinity>
-8.21378

$$$$
