CHEMBL4640302


 44 49  0  0  0  0  0  0  0  0999 V2000
  -19.4340    1.8671  -14.7432 C   0  0  0  0  0  0  0  0  0  0  0  0
  -18.5018    0.9378  -14.2314 C   0  0  0  0  0  0  0  0  0  0  0  0
  -17.1355    1.0072  -14.5738 C   0  0  0  0  0  0  0  0  0  0  0  0
  -16.7211    1.9991  -15.4463 C   0  0  0  0  0  0  0  0  0  0  0  0
  -17.6675    2.9179  -15.9252 C   0  0  0  0  0  0  0  0  0  0  0  0
  -19.0006    2.8952  -15.5857 C   0  0  0  0  0  0  0  0  0  0  0  0
  -17.1069    3.7815  -16.8489 N   0  0  0  0  0  0  0  0  0  0  0  0
  -15.8051    3.4377  -17.1222 C   0  0  0  0  0  0  0  0  0  0  0  0
  -15.1719    3.8300  -18.0829 O   0  0  0  0  0  0  0  0  0  0  0  0
  -15.4494    2.3737  -16.0970 C   0  0  0  0  0  0  0  0  0  0  0  0
  -14.1770    1.9354  -15.9826 C   0  0  0  0  0  0  0  0  0  0  0  0
  -17.6176    4.4383  -17.4257 H   0  0  0  0  0  0  0  0  0  0  0  0
  -13.8831    0.6529  -15.3007 C   0  0  0  0  0  0  0  0  0  0  0  0
  -13.6519   -0.4893  -16.0856 C   0  0  0  0  0  0  0  0  0  0  0  0
  -13.3474   -1.7149  -15.4903 C   0  0  0  0  0  0  0  0  0  0  0  0
  -13.2672   -1.8123  -14.1039 C   0  0  0  0  0  0  0  0  0  0  0  0
  -13.4803   -0.6814  -13.3129 C   0  0  0  0  0  0  0  0  0  0  0  0
  -13.7812    0.5509  -13.9086 C   0  0  0  0  0  0  0  0  0  0  0  0
  -20.8925    1.7924  -14.4880 C   0  0  0  0  0  0  0  0  0  0  0  0
  -21.6074    2.7863  -14.4064 O   0  0  0  0  0  0  0  0  0  0  0  0
  -22.3570    0.3284  -13.4349 C   0  0  0  0  0  0  0  0  0  0  0  0
  -21.3117    0.5100  -14.3940 O   0  0  0  0  0  0  0  0  0  0  0  0
  -13.0679    2.4950  -16.5977 N   0  0  0  0  0  0  0  0  0  0  0  0
  -12.3499    1.8368  -16.8842 H   0  0  0  0  0  0  0  0  0  0  0  0
  -12.6419    3.8366  -16.5923 C   0  0  0  0  0  0  0  0  0  0  0  0
  -13.0011    4.6447  -15.5154 C   0  0  0  0  0  0  0  0  0  0  0  0
  -12.5975    5.9792  -15.4559 C   0  0  0  0  0  0  0  0  0  0  0  0
  -11.7750    6.4906  -16.4531 C   0  0  0  0  0  0  0  0  0  0  0  0
  -11.3800    5.7266  -17.5019 N   0  0  0  0  0  0  0  0  0  0  0  0
  -11.7993    4.4288  -17.5325 C   0  0  0  0  0  0  0  0  0  0  0  0
  -11.3648    7.8683  -16.3888 N   0  0  0  0  0  0  0  0  0  0  0  0
  -10.9429    8.5735  -15.2490 C   0  0  0  0  0  0  0  0  0  0  0  0
  -10.6966    8.0024  -13.8907 C   0  0  0  0  0  0  0  0  0  0  0  0
  -10.6996    9.8858  -15.6116 C   0  0  0  0  0  0  0  0  0  0  0  0
  -10.9335   10.0041  -16.9908 C   0  0  0  0  0  0  0  0  0  0  0  0
  -11.3343    8.7645  -17.4657 C   0  0  0  0  0  0  0  0  0  0  0  0
  -11.7815    8.4520  -18.8671 C   0  0  0  0  0  0  0  0  0  0  0  0
  -13.0261    9.1511  -19.2231 N   0  0  0  0  0  0  0  0  0  0  0  0
  -13.0407    9.5744  -20.6365 C   0  0  0  0  0  0  0  0  0  0  0  0
  -14.3572   10.3133  -20.9745 C   0  0  0  0  0  0  0  0  0  0  0  0
  -15.5929    9.5459  -20.7104 N   0  0  0  0  0  0  0  0  0  0  0  0
  -15.8042    8.5125  -21.7192 C   0  0  0  0  0  0  0  0  0  0  0  0
  -15.5294    8.9764  -19.3486 C   0  0  0  0  0  0  0  0  0  0  0  0
  -14.1949    8.2833  -18.9760 C   0  0  0  0  0  0  0  0  0  0  0  0
 21 22  1  0  0  0
 22 19  1  0  0  0
 19 20  2  0  0  0
 19  1  1  0  0  0
  1  2  1  0  0  0
  1  6  2  0  0  0
  2  3  2  0  0  0
  3  4  1  0  0  0
  4  5  2  0  0  0
  4 10  1  0  0  0
  5  6  1  0  0  0
  5  7  1  0  0  0
  7  8  1  0  0  0
  7 12  1  0  0  0
  8  9  2  0  0  0
  8 10  1  0  0  0
 10 11  2  0  0  0
 11 23  1  0  0  0
 11 13  1  0  0  0
 23 25  1  0  0  0
 23 24  1  0  0  0
 25 26  1  0  0  0
 25 30  2  0  0  0
 26 27  2  0  0  0
 27 28  1  0  0  0
 28 31  1  0  0  0
 28 29  2  0  0  0
 31 32  1  0  0  0
 31 36  1  0  0  0
 32 33  1  0  0  0
 32 34  2  0  0  0
 34 35  1  0  0  0
 35 36  2  0  0  0
 36 37  1  0  0  0
 37 38  1  0  0  0
 38 39  1  0  0  0
 38 44  1  0  0  0
 39 40  1  0  0  0
 40 41  1  0  0  0
 41 42  1  0  0  0
 41 43  1  0  0  0
 43 44  1  0  0  0
 29 30  1  0  0  0
 13 14  1  0  0  0
 13 18  2  0  0  0
 14 15  2  0  0  0
 15 16  1  0  0  0
 16 17  2  0  0  0
 17 18  1  0  0  0
M  END
> <minimizedAffinity>
-6.87228

$$$$
