CHEMBL1682358


 25 28  0  0  0  0  0  0  0  0999 V2000
  -27.8795    0.9257   -5.1500 N   0  0  0  0  0  0  0  0  0  0  0  0
  -28.2106   -0.3682   -5.2286 C   0  0  0  0  0  0  0  0  0  0  0  0
  -28.6266   -1.0754   -4.1818 N   0  0  0  0  0  0  0  0  0  0  0  0
  -28.8179   -2.3059   -4.6838 N   0  0  0  0  0  0  0  0  0  0  0  0
  -28.5579   -2.4152   -6.0234 C   0  0  0  0  0  0  0  0  0  0  0  0
  -28.6296   -3.4979   -6.9006 C   0  0  0  0  0  0  0  0  0  0  0  0
  -28.2605   -3.2603   -8.2321 C   0  0  0  0  0  0  0  0  0  0  0  0
  -27.8401   -1.9964   -8.6801 C   0  0  0  0  0  0  0  0  0  0  0  0
  -27.8032   -0.9273   -7.7648 C   0  0  0  0  0  0  0  0  0  0  0  0
  -28.1576   -1.1446   -6.4166 C   0  0  0  0  0  0  0  0  0  0  0  0
  -28.1096    1.4192   -4.2957 H   0  0  0  0  0  0  0  0  0  0  0  0
  -27.7908    1.5073   -5.9727 H   0  0  0  0  0  0  0  0  0  0  0  0
  -29.1232   -3.0371   -4.0524 H   0  0  0  0  0  0  0  0  0  0  0  0
  -27.4283   -1.8128  -10.0693 C   0  0  0  0  0  0  0  0  0  0  0  0
  -26.4586   -2.3673  -10.8738 C   0  0  0  0  0  0  0  0  0  0  0  0
  -26.5996   -1.7129  -12.1203 C   0  0  0  0  0  0  0  0  0  0  0  0
  -27.6104   -0.8340  -12.0895 N   0  0  0  0  0  0  0  0  0  0  0  0
  -28.1148   -0.8893  -10.8017 O   0  0  0  0  0  0  0  0  0  0  0  0
  -25.8315   -1.9549  -13.3731 C   0  0  0  0  0  0  0  0  0  0  0  0
  -24.5559   -1.1541  -13.2713 C   0  0  0  0  0  0  0  0  0  0  0  0
  -23.8290   -1.1010  -12.0710 C   0  0  0  0  0  0  0  0  0  0  0  0
  -22.6410   -0.3706  -11.9930 C   0  0  0  0  0  0  0  0  0  0  0  0
  -22.1643    0.3107  -13.1110 C   0  0  0  0  0  0  0  0  0  0  0  0
  -22.8768    0.2680  -14.3077 C   0  0  0  0  0  0  0  0  0  0  0  0
  -24.0673   -0.4562  -14.3866 C   0  0  0  0  0  0  0  0  0  0  0  0
  1  2  1  0  0  0
  1 11  1  0  0  0
  1 12  1  0  0  0
  2  3  2  0  0  0
  2 10  1  0  0  0
  3  4  1  0  0  0
  4  5  1  0  0  0
  4 13  1  0  0  0
  5  6  1  0  0  0
  5 10  2  0  0  0
  6  7  2  0  0  0
  7  8  1  0  0  0
  8 14  1  0  0  0
  8  9  2  0  0  0
 14 15  2  0  0  0
 14 18  1  0  0  0
 15 16  1  0  0  0
 16 19  1  0  0  0
 16 17  2  0  0  0
 19 20  1  0  0  0
 20 21  1  0  0  0
 20 25  2  0  0  0
 21 22  2  0  0  0
 22 23  1  0  0  0
 23 24  2  0  0  0
 24 25  1  0  0  0
 17 18  1  0  0  0
  9 10  1  0  0  0
M  END
> <minimizedAffinity>
-9.05048

$$$$
