CHEMBL410100


 37 43  0  0  0  0  0  0  0  0999 V2000
  -29.8433   -4.6346   -6.2795 N   0  0  0  0  0  0  0  0  0  0  0  0
  -29.1081   -3.7196   -7.0820 C   0  0  0  0  0  0  0  0  0  0  0  0
  -29.2413   -2.3320   -7.2923 C   0  0  0  0  0  0  0  0  0  0  0  0
  -28.4342   -1.7124   -8.2712 C   0  0  0  0  0  0  0  0  0  0  0  0
  -27.4785   -2.4353   -8.9862 C   0  0  0  0  0  0  0  0  0  0  0  0
  -27.3376   -3.8015   -8.7509 C   0  0  0  0  0  0  0  0  0  0  0  0
  -28.1828   -4.4536   -7.8388 C   0  0  0  0  0  0  0  0  0  0  0  0
  -28.5035   -5.7575   -7.5302 C   0  0  0  0  0  0  0  0  0  0  0  0
  -28.1713   -6.8268   -8.3817 C   0  0  0  0  0  0  0  0  0  0  0  0
  -28.9935   -7.9662   -8.2731 C   0  0  0  0  0  0  0  0  0  0  0  0
  -29.9992   -8.1154   -7.3006 C   0  0  0  0  0  0  0  0  0  0  0  0
  -29.8178   -7.2470   -6.1683 C   0  0  0  0  0  0  0  0  0  0  0  0
  -29.3989   -5.9422   -6.5145 C   0  0  0  0  0  0  0  0  0  0  0  0
  -29.2175   -8.0272   -4.9239 C   0  0  0  0  0  0  0  0  0  0  0  0
  -28.7292   -9.5000   -5.2497 C   0  0  0  0  0  0  0  0  0  0  0  0
  -29.8479  -10.1655   -5.9693 C   0  0  0  0  0  0  0  0  0  0  0  0
  -30.5543  -11.2223   -5.5717 N   0  0  0  0  0  0  0  0  0  0  0  0
  -31.6871  -11.1121   -6.3106 N   0  0  0  0  0  0  0  0  0  0  0  0
  -32.7912  -12.0059   -6.0573 C   0  0  0  0  0  0  0  0  0  0  0  0
  -31.7331   -9.9740   -7.0806 C   0  0  0  0  0  0  0  0  0  0  0  0
  -30.4721   -9.4426   -6.9983 C   0  0  0  0  0  0  0  0  0  0  0  0
  -28.5031   -8.9355   -9.2183 C   0  0  0  0  0  0  0  0  0  0  0  0
  -28.8219  -10.0735   -9.5258 O   0  0  0  0  0  0  0  0  0  0  0  0
  -27.4023   -8.3246   -9.8086 N   0  0  0  0  0  0  0  0  0  0  0  0
  -27.1531   -6.9590   -9.4187 C   0  0  0  0  0  0  0  0  0  0  0  0
  -26.8444   -8.8389  -10.4734 H   0  0  0  0  0  0  0  0  0  0  0  0
  -26.6834   -1.8811  -10.1213 C   0  0  0  0  0  0  0  0  0  0  0  0
  -25.5792   -1.4072   -9.8689 O   0  0  0  0  0  0  0  0  0  0  0  0
  -27.2026   -1.9275  -11.4712 C   0  0  0  0  0  0  0  0  0  0  0  0
  -28.5054   -2.0582  -11.9152 C   0  0  0  0  0  0  0  0  0  0  0  0
  -28.4529   -2.0905  -13.3276 C   0  0  0  0  0  0  0  0  0  0  0  0
  -27.1221   -2.0106  -13.6604 C   0  0  0  0  0  0  0  0  0  0  0  0
  -26.3561   -1.9070  -12.5447 O   0  0  0  0  0  0  0  0  0  0  0  0
  -31.1234   -4.2858   -5.6658 C   0  0  0  0  0  0  0  0  0  0  0  0
  -31.6727   -5.5099   -3.4975 C   0  0  0  0  0  0  0  0  0  0  0  0
  -31.1687   -4.2160   -4.1314 C   0  0  0  0  0  0  0  0  0  0  0  0
  -29.7623   -3.9081   -3.5928 C   0  0  0  0  0  0  0  0  0  0  0  0
 35 36  1  0  0  0
 36 37  1  0  0  0
 36 34  1  0  0  0
 34  1  1  0  0  0
  1  2  1  0  0  0
  1 13  1  0  0  0
  2  3  1  0  0  0
  2  7  2  0  0  0
  3  4  2  0  0  0
  4  5  1  0  0  0
  5 27  1  0  0  0
  5  6  2  0  0  0
 27 28  2  0  0  0
 27 29  1  0  0  0
 29 30  2  0  0  0
 29 33  1  0  0  0
 30 31  1  0  0  0
 31 32  2  0  0  0
 32 33  1  0  0  0
  6  7  1  0  0  0
  7  8  1  0  0  0
  8  9  1  0  0  0
  8 13  2  0  0  0
  9 10  2  0  0  0
  9 25  1  0  0  0
 10 11  1  0  0  0
 10 22  1  0  0  0
 11 12  2  0  0  0
 11 21  1  0  0  0
 12 13  1  0  0  0
 12 14  1  0  0  0
 14 15  1  0  0  0
 15 16  1  0  0  0
 16 17  2  0  0  0
 16 21  1  0  0  0
 17 18  1  0  0  0
 18 19  1  0  0  0
 18 20  1  0  0  0
 20 21  2  0  0  0
 22 23  2  0  0  0
 22 24  1  0  0  0
 24 25  1  0  0  0
 24 26  1  0  0  0
M  END
> <minimizedAffinity>
-6.96998

$$$$
