CHEMBL1615278


 40 44  0  0  0  0  0  0  0  0999 V2000
  -27.7873   -1.7388   -7.7364 C   0  0  0  0  0  0  0  0  0  0  0  0
  -27.8882   -3.1211   -7.3928 C   0  0  0  0  0  0  0  0  0  0  0  0
  -28.6015   -3.2931   -6.2355 C   0  0  0  0  0  0  0  0  0  0  0  0
  -29.2746   -1.8573   -5.6493 S   0  0  0  0  0  0  0  0  0  0  0  0
  -28.4542   -0.9181   -6.8364 C   0  0  0  0  0  0  0  0  0  0  0  0
  -28.7882   -4.4808   -5.5353 N   0  0  0  0  0  0  0  0  0  0  0  0
  -28.8046   -4.6225   -4.1615 C   0  0  0  0  0  0  0  0  0  0  0  0
  -29.0627   -5.8512   -3.7796 N   0  0  0  0  0  0  0  0  0  0  0  0
  -29.1429   -6.5608   -4.9345 C   0  0  0  0  0  0  0  0  0  0  0  0
  -29.3326   -7.9383   -5.0979 C   0  0  0  0  0  0  0  0  0  0  0  0
  -29.2739   -8.4925   -6.3840 C   0  0  0  0  0  0  0  0  0  0  0  0
  -29.0441   -7.7048   -7.5101 C   0  0  0  0  0  0  0  0  0  0  0  0
  -28.9317   -6.3091   -7.3692 C   0  0  0  0  0  0  0  0  0  0  0  0
  -28.9775   -5.7576   -6.0622 C   0  0  0  0  0  0  0  0  0  0  0  0
  -28.8940   -8.1962   -8.7991 O   0  0  0  0  0  0  0  0  0  0  0  0
  -28.4414   -9.5621   -8.9384 C   0  0  0  0  0  0  0  0  0  0  0  0
  -26.9795   -9.6222   -9.3861 C   0  0  0  0  0  0  0  0  0  0  0  0
  -26.7990   -9.2014  -10.8442 C   0  0  0  0  0  0  0  0  0  0  0  0
  -27.6467   -9.9484  -11.7805 N   0  0  0  0  0  0  0  0  0  0  0  0
  -27.5289   -9.3634  -13.1244 C   0  0  0  0  0  0  0  0  0  0  0  0
  -29.0617   -9.9753  -11.3912 C   0  0  0  0  0  0  0  0  0  0  0  0
  -29.3001  -10.3475   -9.9313 C   0  0  0  0  0  0  0  0  0  0  0  0
  -28.5314    0.5316   -6.7404 C   0  0  0  0  0  0  0  0  0  0  0  0
  -27.8052    1.1016   -5.7345 N   0  0  0  0  0  0  0  0  0  0  0  0
  -29.1978    1.2632   -7.4689 O   0  0  0  0  0  0  0  0  0  0  0  0
  -27.1710    0.5422   -5.1837 H   0  0  0  0  0  0  0  0  0  0  0  0
  -27.8130    2.1066   -5.6442 H   0  0  0  0  0  0  0  0  0  0  0  0
  -27.1134   -1.2031   -8.7902 O   0  0  0  0  0  0  0  0  0  0  0  0
  -28.0534   -3.0766  -10.0431 C   0  0  0  0  0  0  0  0  0  0  0  0
  -27.5636   -1.6238  -10.0939 C   0  0  0  0  0  0  0  0  0  0  0  0
  -26.4032   -1.5353  -11.0846 C   0  0  0  0  0  0  0  0  0  0  0  0
  -25.0966   -1.3483  -10.5874 C   0  0  0  0  0  0  0  0  0  0  0  0
  -23.9870   -1.3197  -11.4289 C   0  0  0  0  0  0  0  0  0  0  0  0
  -24.1546   -1.5022  -12.7908 C   0  0  0  0  0  0  0  0  0  0  0  0
  -25.4326   -1.6972  -13.3111 C   0  0  0  0  0  0  0  0  0  0  0  0
  -26.5760   -1.7124  -12.4806 C   0  0  0  0  0  0  0  0  0  0  0  0
  -27.9040   -1.9358  -13.1819 C   0  0  0  0  0  0  0  0  0  0  0  0
  -28.3313   -3.2266  -13.2364 F   0  0  0  0  0  0  0  0  0  0  0  0
  -28.9180   -1.2427  -12.5893 F   0  0  0  0  0  0  0  0  0  0  0  0
  -27.8773   -1.5153  -14.4776 F   0  0  0  0  0  0  0  0  0  0  0  0
 29 30  1  0  0  0
 30 28  1  0  0  0
 30 31  1  0  0  0
 28  1  1  0  0  0
  1  2  1  0  0  0
  1  5  2  0  0  0
  2  3  2  0  0  0
  3  6  1  0  0  0
  3  4  1  0  0  0
  6  7  1  0  0  0
  6 14  1  0  0  0
  7  8  2  0  0  0
  8  9  1  0  0  0
  9 10  1  0  0  0
  9 14  2  0  0  0
 10 11  2  0  0  0
 11 12  1  0  0  0
 12 15  1  0  0  0
 12 13  2  0  0  0
 15 16  1  0  0  0
 16 17  1  0  0  0
 16 22  1  0  0  0
 17 18  1  0  0  0
 18 19  1  0  0  0
 19 20  1  0  0  0
 19 21  1  0  0  0
 21 22  1  0  0  0
 13 14  1  0  0  0
  4  5  1  0  0  0
  5 23  1  0  0  0
 23 24  1  0  0  0
 23 25  2  0  0  0
 24 26  1  0  0  0
 24 27  1  0  0  0
 31 32  1  0  0  0
 31 36  2  0  0  0
 32 33  2  0  0  0
 33 34  1  0  0  0
 34 35  2  0  0  0
 35 36  1  0  0  0
 36 37  1  0  0  0
 37 38  1  0  0  0
 37 39  1  0  0  0
 37 40  1  0  0  0
M  END
> <minimizedAffinity>
-8.33659

$$$$
