CHEMBL3928439


 37 40  0  0  0  0  0  0  0  0999 V2000
  -13.3336    0.7234  -14.4626 C   0  0  0  0  0  0  0  0  0  0  0  0
  -13.1635    1.4220  -15.6939 C   0  0  0  0  0  0  0  0  0  0  0  0
  -14.1082    2.2650  -16.2459 C   0  0  0  0  0  0  0  0  0  0  0  0
  -13.8615    2.8295  -17.4331 N   0  0  0  0  0  0  0  0  0  0  0  0
  -14.8032    3.6485  -17.9019 C   0  0  0  0  0  0  0  0  0  0  0  0
  -15.9387    3.9668  -17.2782 N   0  0  0  0  0  0  0  0  0  0  0  0
  -16.1729    3.3855  -16.0909 C   0  0  0  0  0  0  0  0  0  0  0  0
  -15.2751    2.4675  -15.5352 C   0  0  0  0  0  0  0  0  0  0  0  0
  -15.4809    1.7747  -14.3260 C   0  0  0  0  0  0  0  0  0  0  0  0
  -14.5146    0.9410  -13.7495 C   0  0  0  0  0  0  0  0  0  0  0  0
  -17.3475    3.7014  -15.3530 N   0  0  0  0  0  0  0  0  0  0  0  0
  -17.6120    4.6627  -15.5377 H   0  0  0  0  0  0  0  0  0  0  0  0
  -18.4861    2.8871  -15.1376 C   0  0  0  0  0  0  0  0  0  0  0  0
  -18.4343    1.4996  -15.3503 C   0  0  0  0  0  0  0  0  0  0  0  0
  -19.5600    0.7071  -15.1427 C   0  0  0  0  0  0  0  0  0  0  0  0
  -20.7374    1.2756  -14.6688 C   0  0  0  0  0  0  0  0  0  0  0  0
  -22.1092    0.2421  -14.4760 Cl  0  0  0  0  0  0  0  0  0  0  0  0
  -20.7732    2.6458  -14.3789 C   0  0  0  0  0  0  0  0  0  0  0  0
  -22.1878    3.4180  -13.7547 Cl  0  0  0  0  0  0  0  0  0  0  0  0
  -19.6414    3.4330  -14.6097 C   0  0  0  0  0  0  0  0  0  0  0  0
  -15.0162    0.4672  -12.5811 O   0  0  0  0  0  0  0  0  0  0  0  0
  -15.6422   -0.7848  -12.4266 C   0  0  0  0  0  0  0  0  0  0  0  0
  -12.3826   -0.2002  -14.0490 O   0  0  0  0  0  0  0  0  0  0  0  0
  -12.7725   -1.5497  -14.4073 C   0  0  0  0  0  0  0  0  0  0  0  0
  -13.6247   -4.1940  -12.9086 N   0  0  0  0  0  0  0  0  0  0  0  0
  -13.6710   -5.1220  -14.0630 C   0  0  0  0  0  0  0  0  0  0  0  0
  -13.6687   -4.4927  -15.4569 C   0  0  0  0  0  0  0  0  0  0  0  0
  -12.3134   -4.0254  -15.9763 C   0  0  0  0  0  0  0  0  0  0  0  0
  -11.3665   -3.5706  -15.0312 O   0  0  0  0  0  0  0  0  0  0  0  0
  -11.8020   -2.6680  -14.0234 C   0  0  0  0  0  0  0  0  0  0  0  0
  -12.3405   -3.4585  -12.7985 C   0  0  0  0  0  0  0  0  0  0  0  0
  -13.8908   -4.9846  -11.6573 C   0  0  0  0  0  0  0  0  0  0  0  0
  -15.1379   -4.5778  -10.8161 C   0  0  0  0  0  0  0  0  0  0  0  0
  -13.5002   -3.5718   -9.1162 C   0  0  0  0  0  0  0  0  0  0  0  0
  -14.8159   -3.4045   -9.8674 C   0  0  0  0  0  0  0  0  0  0  0  0
  -16.4094   -4.3533  -11.6751 C   0  0  0  0  0  0  0  0  0  0  0  0
  -16.9888   -5.5466  -12.4191 C   0  0  0  0  0  0  0  0  0  0  0  0
 34 35  1  0  0  0
 35 33  1  0  0  0
 33 36  1  0  0  0
 33 32  1  0  0  0
 36 37  1  0  0  0
 32 25  1  0  0  0
 25 26  1  0  0  0
 25 31  1  0  0  0
 26 27  1  0  0  0
 27 28  1  0  0  0
 28 29  1  0  0  0
 29 30  1  0  0  0
 30 24  1  0  0  0
 30 31  1  0  0  0
 24 23  1  0  0  0
 23  1  1  0  0  0
  1  2  1  0  0  0
  1 10  2  0  0  0
  2  3  2  0  0  0
  3  4  1  0  0  0
  3  8  1  0  0  0
  4  5  2  0  0  0
  5  6  1  0  0  0
  6  7  2  0  0  0
  7 11  1  0  0  0
  7  8  1  0  0  0
 11 13  1  0  0  0
 11 12  1  0  0  0
 13 14  1  0  0  0
 13 20  2  0  0  0
 14 15  2  0  0  0
 15 16  1  0  0  0
 16 17  1  0  0  0
 16 18  2  0  0  0
 18 19  1  0  0  0
 18 20  1  0  0  0
  8  9  2  0  0  0
  9 10  1  0  0  0
 10 21  1  0  0  0
 21 22  1  0  0  0
M  END
> <minimizedAffinity>
-8.20499

$$$$
