CHEMBL370515


 34 37  0  0  0  0  0  0  0  0999 V2000
  -12.4431   -2.8057  -12.7432 C   0  0  0  0  0  0  0  0  0  0  0  0
  -11.2138   -2.6822  -13.1527 N   0  0  0  0  0  0  0  0  0  0  0  0
  -10.8652   -1.6723  -14.0040 C   0  0  0  0  0  0  0  0  0  0  0  0
  -11.6530   -0.7773  -14.4924 N   0  0  0  0  0  0  0  0  0  0  0  0
  -12.9245   -0.9000  -14.0990 N   0  0  0  0  0  0  0  0  0  0  0  0
  -13.9194   -0.0678  -14.5032 C   0  0  0  0  0  0  0  0  0  0  0  0
  -15.0845   -0.4714  -13.9001 C   0  0  0  0  0  0  0  0  0  0  0  0
  -14.8058   -1.6704  -13.1435 C   0  0  0  0  0  0  0  0  0  0  0  0
  -13.4185   -1.8600  -13.2479 C   0  0  0  0  0  0  0  0  0  0  0  0
  -16.3610    0.2915  -14.0679 C   0  0  0  0  0  0  0  0  0  0  0  0
  -17.3244   -0.0399  -14.9019 N   0  0  0  0  0  0  0  0  0  0  0  0
  -18.3003    0.8755  -14.6209 C   0  0  0  0  0  0  0  0  0  0  0  0
  -19.6246    0.8339  -15.2650 C   0  0  0  0  0  0  0  0  0  0  0  0
  -17.9811    1.7743  -13.6846 N   0  0  0  0  0  0  0  0  0  0  0  0
  -16.6913    1.3902  -13.3092 O   0  0  0  0  0  0  0  0  0  0  0  0
  -15.8792   -2.5016  -12.4611 C   0  0  0  0  0  0  0  0  0  0  0  0
  -16.1496   -3.8320  -13.1628 C   0  0  0  0  0  0  0  0  0  0  0  0
  -15.7083   -2.6398  -10.9501 C   0  0  0  0  0  0  0  0  0  0  0  0
  -12.7318   -3.7909  -11.8246 N   0  0  0  0  0  0  0  0  0  0  0  0
  -12.8496   -3.5321  -10.8617 H   0  0  0  0  0  0  0  0  0  0  0  0
  -13.2630   -7.0346  -13.6039 C   0  0  0  0  0  0  0  0  0  0  0  0
  -12.9073   -5.7005  -13.3603 C   0  0  0  0  0  0  0  0  0  0  0  0
  -13.0688   -5.1300  -12.0939 C   0  0  0  0  0  0  0  0  0  0  0  0
  -13.5515   -5.9525  -11.0626 C   0  0  0  0  0  0  0  0  0  0  0  0
  -13.7121   -5.4395   -9.8332 F   0  0  0  0  0  0  0  0  0  0  0  0
  -13.8760   -7.2892  -11.2775 C   0  0  0  0  0  0  0  0  0  0  0  0
  -13.7332   -7.8221  -12.5531 C   0  0  0  0  0  0  0  0  0  0  0  0
  -14.0729   -9.1036  -12.7552 F   0  0  0  0  0  0  0  0  0  0  0  0
  -14.2708   -7.3381  -15.7933 N   0  0  0  0  0  0  0  0  0  0  0  0
  -13.1658   -7.5313  -14.9943 C   0  0  0  0  0  0  0  0  0  0  0  0
  -12.1372   -8.1028  -15.3434 O   0  0  0  0  0  0  0  0  0  0  0  0
  -14.9343   -6.5961  -15.5933 H   0  0  0  0  0  0  0  0  0  0  0  0
  -13.7675   -6.3707  -17.8211 C   0  0  0  0  0  0  0  0  0  0  0  0
  -14.0614   -7.6040  -17.1677 O   0  0  0  0  0  0  0  0  0  0  0  0
 33 34  1  0  0  0
 34 29  1  0  0  0
 29 30  1  0  0  0
 29 32  1  0  0  0
 30 31  2  0  0  0
 30 21  1  0  0  0
 21 22  1  0  0  0
 21 27  2  0  0  0
 22 23  2  0  0  0
 23 19  1  0  0  0
 23 24  1  0  0  0
 19  1  1  0  0  0
 19 20  1  0  0  0
  1  2  2  0  0  0
  1  9  1  0  0  0
  2  3  1  0  0  0
  3  4  2  0  0  0
  4  5  1  0  0  0
  5  6  1  0  0  0
  5  9  1  0  0  0
  6  7  2  0  0  0
  7 10  1  0  0  0
  7  8  1  0  0  0
 10 11  2  0  0  0
 10 15  1  0  0  0
 11 12  1  0  0  0
 12 13  1  0  0  0
 12 14  2  0  0  0
 14 15  1  0  0  0
  8 16  1  0  0  0
  8  9  2  0  0  0
 16 17  1  0  0  0
 16 18  1  0  0  0
 24 25  1  0  0  0
 24 26  2  0  0  0
 26 27  1  0  0  0
 27 28  1  0  0  0
M  END
> <minimizedAffinity>
-7.27942

$$$$
