CHEMBL1094194


 38 41  0  0  0  0  0  0  0  0999 V2000
  -27.9036   -2.0247   -8.6700 N   0  0  0  0  0  0  0  0  0  0  0  0
  -27.5016   -0.9878   -7.8925 C   0  0  0  0  0  0  0  0  0  0  0  0
  -27.8251   -1.2448   -6.5662 C   0  0  0  0  0  0  0  0  0  0  0  0
  -28.4902   -2.4512   -6.5671 C   0  0  0  0  0  0  0  0  0  0  0  0
  -28.9707   -3.2311   -5.5172 C   0  0  0  0  0  0  0  0  0  0  0  0
  -29.5563   -4.4591   -5.8120 C   0  0  0  0  0  0  0  0  0  0  0  0
  -29.7194   -4.8535   -7.1743 C   0  0  0  0  0  0  0  0  0  0  0  0
  -29.2061   -4.0608   -8.2085 C   0  0  0  0  0  0  0  0  0  0  0  0
  -28.5684   -2.8744   -7.8670 C   0  0  0  0  0  0  0  0  0  0  0  0
  -27.4833   -2.2593  -10.0589 C   0  0  0  0  0  0  0  0  0  0  0  0
  -26.0936   -1.6027  -10.2505 C   0  0  0  0  0  0  0  0  0  0  0  0
  -25.9193   -0.9057  -11.6006 C   0  0  0  0  0  0  0  0  0  0  0  0
  -24.4255   -0.6735  -11.9159 C   0  0  0  0  0  0  0  0  0  0  0  0
  -24.1902   -0.5829  -13.4349 C   0  0  0  0  0  0  0  0  0  0  0  0
  -20.9812    2.1453  -14.5170 C   0  0  0  0  0  0  0  0  0  0  0  0
  -22.1801    2.6320  -13.9796 C   0  0  0  0  0  0  0  0  0  0  0  0
  -23.2097    1.7512  -13.6260 C   0  0  0  0  0  0  0  0  0  0  0  0
  -23.0599    0.3638  -13.8025 C   0  0  0  0  0  0  0  0  0  0  0  0
  -21.8427   -0.1242  -14.3193 C   0  0  0  0  0  0  0  0  0  0  0  0
  -20.8147    0.7622  -14.6795 C   0  0  0  0  0  0  0  0  0  0  0  0
  -18.2138    2.4304  -14.6158 C   0  0  0  0  0  0  0  0  0  0  0  0
  -19.7305    3.3217  -15.0899 S   0  0  0  0  0  0  0  0  0  0  0  0
  -27.3908   -0.4754   -5.3543 C   0  0  0  0  0  0  0  0  0  0  0  0
  -28.3392    0.6935   -5.0747 C   0  0  0  0  0  0  0  0  0  0  0  0
  -28.2616    1.6696   -6.1555 N   0  0  0  0  0  0  0  0  0  0  0  0
  -27.2861    2.0271   -6.2319 H   0  0  0  0  0  0  0  0  0  0  0  0
  -28.8938    2.4683   -5.9225 H   0  0  0  0  0  0  0  0  0  0  0  0
  -29.9150   -5.2680   -4.7800 O   0  0  0  0  0  0  0  0  0  0  0  0
  -30.4854   -6.5029   -4.9769 C   0  0  0  0  0  0  0  0  0  0  0  0
  -29.4431   -7.6191   -4.9970 C   0  0  0  0  0  0  0  0  0  0  0  0
  -29.5996   -8.3837   -6.2876 C   0  0  0  0  0  0  0  0  0  0  0  0
  -28.5026   -9.0298   -6.8880 C   0  0  0  0  0  0  0  0  0  0  0  0
  -28.6686   -9.6944   -8.1112 C   0  0  0  0  0  0  0  0  0  0  0  0
  -29.9219   -9.7194   -8.7419 C   0  0  0  0  0  0  0  0  0  0  0  0
  -30.0979  -10.3430   -9.9206 O   0  0  0  0  0  0  0  0  0  0  0  0
  -31.0107   -9.0820   -8.1396 C   0  0  0  0  0  0  0  0  0  0  0  0
  -30.8534   -8.4280   -6.9218 C   0  0  0  0  0  0  0  0  0  0  0  0
  -29.3670  -10.7989  -10.3810 H   0  0  0  0  0  0  0  0  0  0  0  0
 21 22  1  0  0  0
 22 15  1  0  0  0
 15 16  1  0  0  0
 15 20  2  0  0  0
 16 17  2  0  0  0
 17 18  1  0  0  0
 18 14  1  0  0  0
 18 19  2  0  0  0
 14 13  1  0  0  0
 13 12  1  0  0  0
 12 11  1  0  0  0
 11 10  1  0  0  0
 10  1  1  0  0  0
  1  2  1  0  0  0
  1  9  1  0  0  0
  2  3  2  0  0  0
  3 23  1  0  0  0
  3  4  1  0  0  0
 23 24  1  0  0  0
 24 25  1  0  0  0
 25 26  1  0  0  0
 25 27  1  0  0  0
  4  5  1  0  0  0
  4  9  2  0  0  0
  5  6  2  0  0  0
  6 28  1  0  0  0
  6  7  1  0  0  0
 28 29  1  0  0  0
 29 30  1  0  0  0
 30 31  1  0  0  0
 31 32  1  0  0  0
 31 37  2  0  0  0
 32 33  2  0  0  0
 33 34  1  0  0  0
 34 35  1  0  0  0
 34 36  2  0  0  0
 35 38  1  0  0  0
 36 37  1  0  0  0
  7  8  2  0  0  0
  8  9  1  0  0  0
 19 20  1  0  0  0
M  END
> <minimizedAffinity>
-9.02329

$$$$
