CHEMBL296204


 26 29  0  0  0  0  0  0  0  0999 V2000
  -28.6667   -6.4212   -7.0966 C   0  0  0  0  0  0  0  0  0  0  0  0
  -28.3055   -5.6408   -8.1200 N   0  0  0  0  0  0  0  0  0  0  0  0
  -28.7180   -4.3564   -8.0772 C   0  0  0  0  0  0  0  0  0  0  0  0
  -29.4699   -3.8186   -7.0571 C   0  0  0  0  0  0  0  0  0  0  0  0
  -29.7300   -4.6757   -6.0148 C   0  0  0  0  0  0  0  0  0  0  0  0
  -29.3461   -5.9641   -6.0422 N   0  0  0  0  0  0  0  0  0  0  0  0
  -30.4044   -4.2313   -4.8487 N   0  0  0  0  0  0  0  0  0  0  0  0
  -31.3826   -4.9311   -4.1738 C   0  0  0  0  0  0  0  0  0  0  0  0
  -31.5794   -4.2527   -2.9980 C   0  0  0  0  0  0  0  0  0  0  0  0
  -30.8324   -3.1111   -2.9683 N   0  0  0  0  0  0  0  0  0  0  0  0
  -30.1695   -3.0591   -4.1176 C   0  0  0  0  0  0  0  0  0  0  0  0
  -29.3762   -1.8866   -4.5492 C   0  0  0  0  0  0  0  0  0  0  0  0
  -30.0240   -0.7857   -5.1289 C   0  0  0  0  0  0  0  0  0  0  0  0
  -29.3038    0.3473   -5.5262 C   0  0  0  0  0  0  0  0  0  0  0  0
  -27.9238    0.4002   -5.3437 C   0  0  0  0  0  0  0  0  0  0  0  0
  -27.2581   -0.6964   -4.8096 C   0  0  0  0  0  0  0  0  0  0  0  0
  -27.9759   -1.8402   -4.4511 C   0  0  0  0  0  0  0  0  0  0  0  0
  -28.3150   -7.7706   -7.1294 N   0  0  0  0  0  0  0  0  0  0  0  0
  -27.4791   -7.9187   -6.5793 H   0  0  0  0  0  0  0  0  0  0  0  0
  -26.5026  -10.2516  -10.7373 O   0  0  0  0  0  0  0  0  0  0  0  0
  -27.5165   -9.9102  -10.0524 N   0  0  0  0  0  0  0  0  0  0  0  0
  -28.7691  -10.4139  -10.3587 C   0  0  0  0  0  0  0  0  0  0  0  0
  -29.8917  -10.0460   -9.6307 C   0  0  0  0  0  0  0  0  0  0  0  0
  -29.7416   -9.1616   -8.5668 C   0  0  0  0  0  0  0  0  0  0  0  0
  -28.4880   -8.6448   -8.2194 C   0  0  0  0  0  0  0  0  0  0  0  0
  -27.3917   -9.0247   -8.9927 C   0  0  0  0  0  0  0  0  0  0  0  0
 20 21  1  0  0  0
 21 22  1  0  0  0
 21 26  2  0  0  0
 22 23  2  0  0  0
 23 24  1  0  0  0
 24 25  2  0  0  0
 25 18  1  0  0  0
 25 26  1  0  0  0
 18  1  1  0  0  0
 18 19  1  0  0  0
  1  2  1  0  0  0
  1  6  2  0  0  0
  2  3  2  0  0  0
  3  4  1  0  0  0
  4  5  2  0  0  0
  5  7  1  0  0  0
  5  6  1  0  0  0
  7  8  1  0  0  0
  7 11  1  0  0  0
  8  9  2  0  0  0
  9 10  1  0  0  0
 10 11  2  0  0  0
 11 12  1  0  0  0
 12 13  1  0  0  0
 12 17  2  0  0  0
 13 14  2  0  0  0
 14 15  1  0  0  0
 15 16  2  0  0  0
 16 17  1  0  0  0
M  CHG 1  20  -1
M  CHG 1  21   1
M  END
> <minimizedAffinity>
-8.67234

$$$$
