CHEMBL2113180


 33 36  0  0  0  0  0  0  0  0999 V2000
  -28.1256   -1.5080   -5.6297 C   0  0  0  0  0  0  0  0  0  0  0  0
  -28.9617   -1.6728   -4.4956 C   0  0  0  0  0  0  0  0  0  0  0  0
  -29.7810   -2.7815   -4.2853 C   0  0  0  0  0  0  0  0  0  0  0  0
  -30.5920   -2.8328   -3.2219 N   0  0  0  0  0  0  0  0  0  0  0  0
  -31.3626   -3.9218   -3.0987 C   0  0  0  0  0  0  0  0  0  0  0  0
  -31.3665   -4.9766   -3.9180 N   0  0  0  0  0  0  0  0  0  0  0  0
  -30.5343   -4.9232   -4.9751 C   0  0  0  0  0  0  0  0  0  0  0  0
  -29.7214   -3.8070   -5.2271 C   0  0  0  0  0  0  0  0  0  0  0  0
  -28.9162   -3.6527   -6.3688 C   0  0  0  0  0  0  0  0  0  0  0  0
  -28.1068   -2.5254   -6.5899 C   0  0  0  0  0  0  0  0  0  0  0  0
  -30.4736   -6.0368   -5.8621 N   0  0  0  0  0  0  0  0  0  0  0  0
  -30.3508   -5.7009   -6.8202 H   0  0  0  0  0  0  0  0  0  0  0  0
  -29.6423   -7.1220   -5.6109 C   0  0  0  0  0  0  0  0  0  0  0  0
  -29.3992   -7.6214   -4.3999 C   0  0  0  0  0  0  0  0  0  0  0  0
  -28.4346   -8.7101   -4.1325 C   0  0  0  0  0  0  0  0  0  0  0  0
  -28.2770   -9.0629   -2.9718 O   0  0  0  0  0  0  0  0  0  0  0  0
  -27.6659   -9.2785   -5.3077 C   0  0  0  0  0  0  0  0  0  0  0  0
  -27.9838   -8.8123   -6.5272 C   0  0  0  0  0  0  0  0  0  0  0  0
  -28.9978   -7.7689   -6.7815 C   0  0  0  0  0  0  0  0  0  0  0  0
  -29.2776   -7.4251   -7.9281 O   0  0  0  0  0  0  0  0  0  0  0  0
  -26.6541  -10.2414   -5.0866 N   0  0  0  0  0  0  0  0  0  0  0  0
  -26.9196  -11.6711   -4.8312 C   0  0  0  0  0  0  0  0  0  0  0  0
  -26.5758  -12.0338   -3.3866 C   0  0  0  0  0  0  0  0  0  0  0  0
  -25.1349  -11.6504   -3.0532 C   0  0  0  0  0  0  0  0  0  0  0  0
  -24.8665  -10.1877   -3.3986 C   0  0  0  0  0  0  0  0  0  0  0  0
  -25.2473   -9.8764   -4.8474 C   0  0  0  0  0  0  0  0  0  0  0  0
  -27.5350   -2.6357   -7.8220 O   0  0  0  0  0  0  0  0  0  0  0  0
  -27.6710   -1.6646   -8.8385 C   0  0  0  0  0  0  0  0  0  0  0  0
  -27.4955   -0.2878   -5.5779 O   0  0  0  0  0  0  0  0  0  0  0  0
  -28.2916    0.8477   -5.3168 C   0  0  0  0  0  0  0  0  0  0  0  0
  -29.1093    1.3280   -6.5068 C   0  0  0  0  0  0  0  0  0  0  0  0
  -31.3453    2.0720   -6.8380 C   0  0  0  0  0  0  0  0  0  0  0  0
  -30.4703    1.2746   -6.0652 O   0  0  0  0  0  0  0  0  0  0  0  0
 32 33  1  0  0  0
 33 31  1  0  0  0
 31 30  1  0  0  0
 30 29  1  0  0  0
 29  1  1  0  0  0
  1  2  1  0  0  0
  1 10  2  0  0  0
  2  3  2  0  0  0
  3  4  1  0  0  0
  3  8  1  0  0  0
  4  5  2  0  0  0
  5  6  1  0  0  0
  6  7  2  0  0  0
  7 11  1  0  0  0
  7  8  1  0  0  0
 11 13  1  0  0  0
 11 12  1  0  0  0
 13 14  2  0  0  0
 13 19  1  0  0  0
 14 15  1  0  0  0
 15 16  2  0  0  0
 15 17  1  0  0  0
 17 21  1  0  0  0
 17 18  2  0  0  0
 21 22  1  0  0  0
 21 26  1  0  0  0
 22 23  1  0  0  0
 23 24  1  0  0  0
 24 25  1  0  0  0
 25 26  1  0  0  0
 18 19  1  0  0  0
 19 20  2  0  0  0
  8  9  2  0  0  0
  9 10  1  0  0  0
 10 27  1  0  0  0
 27 28  1  0  0  0
M  END
> <minimizedAffinity>
-8.14465

$$$$
