CHEMBL3982740


 38 42  0  0  0  0  0  0  0  0999 V2000
  -17.2112    2.3481  -15.5092 N   0  0  0  0  0  0  0  0  0  0  0  0
  -18.6586    1.9537  -15.4251 C   0  0  0  0  0  0  0  0  0  0  0  0
  -19.4688    3.0688  -15.4382 C   0  0  0  0  0  0  0  0  0  0  0  0
  -20.7004    3.0663  -14.9538 C   0  0  0  0  0  0  0  0  0  0  0  0
  -21.3197    1.9441  -14.5238 C   0  0  0  0  0  0  0  0  0  0  0  0
  -22.3966    2.2021  -13.8532 N   0  0  0  0  0  0  0  0  0  0  0  0
  -23.2116    1.2838  -13.4321 C   0  0  0  0  0  0  0  0  0  0  0  0
  -23.1054   -0.0301  -13.8640 C   0  0  0  0  0  0  0  0  0  0  0  0
  -21.8096   -0.3922  -14.4104 N   0  0  0  0  0  0  0  0  0  0  0  0
  -20.8324    0.6475  -14.7122 C   0  0  0  0  0  0  0  0  0  0  0  0
  -19.3730    0.6316  -15.1567 C   0  0  0  0  0  0  0  0  0  0  0  0
  -24.5946   -0.6229  -13.6475 C   0  0  0  0  0  0  0  0  0  0  0  0
  -25.0796   -0.5312  -12.3072 C   0  0  0  0  0  0  0  0  0  0  0  0
  -26.2401   -1.1354  -12.1344 N   0  0  0  0  0  0  0  0  0  0  0  0
  -26.6293   -1.6008  -13.2923 N   0  0  0  0  0  0  0  0  0  0  0  0
  -27.8999   -2.3586  -13.2916 C   0  0  0  0  0  0  0  0  0  0  0  0
  -25.7079   -1.2752  -14.2775 C   0  0  0  0  0  0  0  0  0  0  0  0
  -14.8798   -0.0217  -13.7160 C   0  0  0  0  0  0  0  0  0  0  0  0
  -13.9913   -0.3360  -14.7484 C   0  0  0  0  0  0  0  0  0  0  0  0
  -14.1064    0.2712  -15.9923 C   0  0  0  0  0  0  0  0  0  0  0  0
  -15.1333    1.2095  -16.1955 C   0  0  0  0  0  0  0  0  0  0  0  0
  -16.0486    1.5549  -15.1760 C   0  0  0  0  0  0  0  0  0  0  0  0
  -15.8978    0.9495  -13.9177 C   0  0  0  0  0  0  0  0  0  0  0  0
  -15.5356   -1.8539  -12.3030 C   0  0  0  0  0  0  0  0  0  0  0  0
  -14.7719   -0.7432  -12.5764 O   0  0  0  0  0  0  0  0  0  0  0  0
  -13.2427   -0.1025  -16.9747 O   0  0  0  0  0  0  0  0  0  0  0  0
  -13.6017   -0.5771  -18.2191 C   0  0  0  0  0  0  0  0  0  0  0  0
  -16.8911    3.5286  -16.4284 C   0  0  0  0  0  0  0  0  0  0  0  0
  -15.6048    4.4804  -16.2633 C   0  0  0  0  0  0  0  0  0  0  0  0
  -14.8075    4.9792  -17.4975 C   0  0  0  0  0  0  0  0  0  0  0  0
  -13.3437    5.2145  -17.1817 N   0  0  0  0  0  0  0  0  0  0  0  0
  -12.3909    4.6698  -18.1624 C   0  0  0  0  0  0  0  0  0  0  0  0
  -12.2167    3.2112  -17.7932 C   0  0  0  0  0  0  0  0  0  0  0  0
  -11.9997    3.3474  -16.3110 C   0  0  0  0  0  0  0  0  0  0  0  0
  -12.9447    4.5182  -15.9140 C   0  0  0  0  0  0  0  0  0  0  0  0
  -12.1844    5.5031  -14.9929 C   0  0  0  0  0  0  0  0  0  0  0  0
  -12.6037    6.8273  -15.2244 O   0  0  0  0  0  0  0  0  0  0  0  0
  -12.2507    7.0863  -16.1122 H   0  0  0  0  0  0  0  0  0  0  0  0
 24 25  1  0  0  0
 25 18  1  0  0  0
 18 19  1  0  0  0
 18 23  2  0  0  0
 19 20  2  0  0  0
 20 26  1  0  0  0
 20 21  1  0  0  0
 26 27  1  0  0  0
 21 22  2  0  0  0
 22  1  1  0  0  0
 22 23  1  0  0  0
  1 28  1  0  0  0
  1  2  1  0  0  0
 28 29  1  0  0  0
 29 30  1  0  0  0
 30 31  1  0  0  0
 31 32  1  0  0  0
 31 35  1  0  0  0
 32 33  1  0  0  0
 33 34  1  0  0  0
 34 35  1  0  0  0
 35 36  1  0  0  0
 36 37  1  0  0  0
 37 38  1  0  0  0
  2  3  1  0  0  0
  2 11  2  0  0  0
  3  4  2  0  0  0
  4  5  1  0  0  0
  5  6  1  0  0  0
  5 10  2  0  0  0
  6  7  2  0  0  0
  7  8  1  0  0  0
  8 12  1  0  0  0
  8  9  2  0  0  0
 12 13  1  0  0  0
 12 17  2  0  0  0
 13 14  2  0  0  0
 14 15  1  0  0  0
 15 16  1  0  0  0
 15 17  1  0  0  0
  9 10  1  0  0  0
 10 11  1  0  0  0
M  END
> <minimizedAffinity>
-8.26511

$$$$
