CHEMBL3940325


 38 41  0  0  0  0  0  0  0  0999 V2000
  -30.5419   -6.8901   -6.2685 C   0  0  0  0  0  0  0  0  0  0  0  0
  -29.6189   -5.8028   -5.7682 C   0  0  0  0  0  0  0  0  0  0  0  0
  -29.3601   -4.7466   -6.6641 C   0  0  0  0  0  0  0  0  0  0  0  0
  -28.5630   -3.6515   -6.3202 C   0  0  0  0  0  0  0  0  0  0  0  0
  -27.9301   -3.6642   -5.0805 C   0  0  0  0  0  0  0  0  0  0  0  0
  -28.1384   -4.7316   -4.1958 C   0  0  0  0  0  0  0  0  0  0  0  0
  -29.0138   -5.7890   -4.5069 C   0  0  0  0  0  0  0  0  0  0  0  0
  -28.3736   -2.5536   -7.2016 N   0  0  0  0  0  0  0  0  0  0  0  0
  -27.9003   -2.7017   -8.4927 C   0  0  0  0  0  0  0  0  0  0  0  0
  -27.7173   -3.7795   -9.0520 O   0  0  0  0  0  0  0  0  0  0  0  0
  -27.6036   -1.4846   -9.1016 N   0  0  0  0  0  0  0  0  0  0  0  0
  -28.8795   -1.7053   -7.0008 H   0  0  0  0  0  0  0  0  0  0  0  0
  -27.2484   -0.7854   -8.4617 H   0  0  0  0  0  0  0  0  0  0  0  0
  -27.0374   -1.5015  -10.4029 C   0  0  0  0  0  0  0  0  0  0  0  0
  -27.8547   -1.6331  -11.5332 C   0  0  0  0  0  0  0  0  0  0  0  0
  -27.2915   -1.7919  -12.7963 C   0  0  0  0  0  0  0  0  0  0  0  0
  -25.9100   -1.8297  -12.9269 C   0  0  0  0  0  0  0  0  0  0  0  0
  -25.3890   -2.0256  -14.1455 F   0  0  0  0  0  0  0  0  0  0  0  0
  -25.0696   -1.6987  -11.8178 C   0  0  0  0  0  0  0  0  0  0  0  0
  -25.6476   -1.4879  -10.5504 C   0  0  0  0  0  0  0  0  0  0  0  0
  -23.5773   -1.8227  -11.9885 C   0  0  0  0  0  0  0  0  0  0  0  0
  -22.9684   -0.6581  -12.7626 C   0  0  0  0  0  0  0  0  0  0  0  0
  -22.9323   -1.9177  -10.7902 F   0  0  0  0  0  0  0  0  0  0  0  0
  -23.2337   -2.9649  -12.6625 F   0  0  0  0  0  0  0  0  0  0  0  0
  -29.2088   -6.8473   -3.6340 O   0  0  0  0  0  0  0  0  0  0  0  0
  -28.6192   -8.0753   -3.9545 C   0  0  0  0  0  0  0  0  0  0  0  0
  -27.3282   -8.0722   -4.4612 C   0  0  0  0  0  0  0  0  0  0  0  0
  -26.8004   -9.3059   -4.8057 C   0  0  0  0  0  0  0  0  0  0  0  0
  -27.4906  -10.4371   -4.6147 N   0  0  0  0  0  0  0  0  0  0  0  0
  -28.7258  -10.3355   -4.1237 C   0  0  0  0  0  0  0  0  0  0  0  0
  -29.3443   -9.1981   -3.8054 N   0  0  0  0  0  0  0  0  0  0  0  0
  -25.5364   -9.3754   -5.4315 N   0  0  0  0  0  0  0  0  0  0  0  0
  -24.3807   -9.7566   -4.7855 C   0  0  0  0  0  0  0  0  0  0  0  0
  -24.2181   -9.8891   -3.5753 O   0  0  0  0  0  0  0  0  0  0  0  0
  -25.4916   -9.1784   -6.4188 H   0  0  0  0  0  0  0  0  0  0  0  0
  -23.1747  -10.0214   -5.6381 C   0  0  0  0  0  0  0  0  0  0  0  0
  -23.2670  -10.9397   -6.8301 C   0  0  0  0  0  0  0  0  0  0  0  0
  -22.3714  -11.3014   -5.6803 C   0  0  0  0  0  0  0  0  0  0  0  0
  1  2  1  0  0  0
  2  3  1  0  0  0
  2  7  2  0  0  0
  3  4  2  0  0  0
  4  8  1  0  0  0
  4  5  1  0  0  0
  8  9  1  0  0  0
  8 12  1  0  0  0
  9 10  2  0  0  0
  9 11  1  0  0  0
 11 14  1  0  0  0
 11 13  1  0  0  0
 14 15  1  0  0  0
 14 20  2  0  0  0
 15 16  2  0  0  0
 16 17  1  0  0  0
 17 18  1  0  0  0
 17 19  2  0  0  0
 19 21  1  0  0  0
 19 20  1  0  0  0
 21 22  1  0  0  0
 21 23  1  0  0  0
 21 24  1  0  0  0
  5  6  2  0  0  0
  6  7  1  0  0  0
  7 25  1  0  0  0
 25 26  1  0  0  0
 26 27  1  0  0  0
 26 31  2  0  0  0
 27 28  2  0  0  0
 28 32  1  0  0  0
 28 29  1  0  0  0
 32 33  1  0  0  0
 32 35  1  0  0  0
 33 34  2  0  0  0
 33 36  1  0  0  0
 36 37  1  0  0  0
 36 38  1  0  0  0
 37 38  1  0  0  0
 29 30  2  0  0  0
 30 31  1  0  0  0
M  END
> <minimizedAffinity>
-10.21908

$$$$
