CHEMBL3986945


 33 36  0  0  0  0  0  0  0  0999 V2000
  -26.7093   -1.6326  -10.4057 C   0  0  0  0  0  0  0  0  0  0  0  0
  -27.1373   -1.6286   -9.2845 C   0  0  0  0  0  0  0  0  0  0  0  0
  -24.7773   -1.1326  -13.5886 C   0  0  0  0  0  0  0  0  0  0  0  0
  -25.7558   -1.5290  -14.5064 C   0  0  0  0  0  0  0  0  0  0  0  0
  -27.0283   -1.9080  -14.0870 C   0  0  0  0  0  0  0  0  0  0  0  0
  -27.3310   -1.9210  -12.7324 C   0  0  0  0  0  0  0  0  0  0  0  0
  -26.3484   -1.5961  -11.7929 C   0  0  0  0  0  0  0  0  0  0  0  0
  -25.0640   -1.2189  -12.2168 C   0  0  0  0  0  0  0  0  0  0  0  0
  -23.0792    0.6828  -13.8221 C   0  0  0  0  0  0  0  0  0  0  0  0
  -23.7137    1.5631  -13.2530 O   0  0  0  0  0  0  0  0  0  0  0  0
  -23.5251   -0.6258  -14.0076 N   0  0  0  0  0  0  0  0  0  0  0  0
  -22.8287   -1.2799  -14.3484 H   0  0  0  0  0  0  0  0  0  0  0  0
  -21.4569    3.4961  -14.0822 C   0  0  0  0  0  0  0  0  0  0  0  0
  -21.0222    2.1227  -14.4551 C   0  0  0  0  0  0  0  0  0  0  0  0
  -19.7661    1.7590  -15.0137 C   0  0  0  0  0  0  0  0  0  0  0  0
  -19.7956    0.3974  -15.1919 C   0  0  0  0  0  0  0  0  0  0  0  0
  -20.9820   -0.1135  -14.7781 O   0  0  0  0  0  0  0  0  0  0  0  0
  -21.7396    0.9365  -14.3291 C   0  0  0  0  0  0  0  0  0  0  0  0
  -27.7427   -1.6120   -7.9897 C   0  0  0  0  0  0  0  0  0  0  0  0
  -27.7773   -0.4406   -7.2382 C   0  0  0  0  0  0  0  0  0  0  0  0
  -28.3425   -0.3438   -6.0105 N   0  0  0  0  0  0  0  0  0  0  0  0
  -28.9015   -1.4732   -5.5137 C   0  0  0  0  0  0  0  0  0  0  0  0
  -28.9062   -2.6900   -6.1848 C   0  0  0  0  0  0  0  0  0  0  0  0
  -28.3083   -2.7620   -7.4457 C   0  0  0  0  0  0  0  0  0  0  0  0
  -29.5513   -3.8593   -5.5483 C   0  0  0  0  0  0  0  0  0  0  0  0
  -30.7242   -3.7197   -5.2117 O   0  0  0  0  0  0  0  0  0  0  0  0
  -28.8862   -5.0927   -5.4450 N   0  0  0  0  0  0  0  0  0  0  0  0
  -29.6622   -6.4008   -5.6822 S   0  0  0  0  0  0  0  0  0  0  0  0
  -30.7075   -6.9170   -4.8173 O   0  0  0  0  0  0  0  0  0  0  0  0
  -28.4895   -7.7157   -5.9349 C   0  0  0  0  0  0  0  0  0  0  0  0
  -28.8585   -8.4176   -7.2440 C   0  0  0  0  0  0  0  0  0  0  0  0
  -30.1836   -7.8719   -7.7754 C   0  0  0  0  0  0  0  0  0  0  0  0
  -30.2838   -6.4212   -7.3469 C   0  0  0  0  0  0  0  0  0  0  0  0
 13 14  1  0  0  0
 14 15  1  0  0  0
 14 18  2  0  0  0
 15 16  2  0  0  0
 16 17  1  0  0  0
 17 18  1  0  0  0
 18  9  1  0  0  0
  9 10  2  0  0  0
  9 11  1  0  0  0
 11  3  1  0  0  0
 11 12  1  0  0  0
  3  4  1  0  0  0
  3  8  2  0  0  0
  4  5  2  0  0  0
  5  6  1  0  0  0
  6  7  2  0  0  0
  7  1  1  0  0  0
  7  8  1  0  0  0
  1  2  3  0  0  0
  2 19  1  0  0  0
 19 20  1  0  0  0
 19 24  2  0  0  0
 20 21  2  0  0  0
 21 22  1  0  0  0
 22 23  2  0  0  0
 23 25  1  0  0  0
 23 24  1  0  0  0
 25 26  2  0  0  0
 25 27  1  0  0  0
 27 28  2  0  0  0
 28 29  2  0  0  0
 28 30  1  0  0  0
 28 33  1  0  0  0
 30 31  1  0  0  0
 31 32  1  0  0  0
 32 33  1  0  0  0
M  END
> <minimizedAffinity>
-10.69042

$$$$
