CHEMBL3897101


 42 45  0  0  0  0  0  0  0  0999 V2000
  -17.0265    2.1883  -15.2246 N   0  0  0  0  0  0  0  0  0  0  0  0
  -18.4755    1.9875  -15.2562 C   0  0  0  0  0  0  0  0  0  0  0  0
  -19.1948    3.1699  -15.4230 C   0  0  0  0  0  0  0  0  0  0  0  0
  -20.5063    3.2624  -14.9801 C   0  0  0  0  0  0  0  0  0  0  0  0
  -21.1955    2.1852  -14.5128 C   0  0  0  0  0  0  0  0  0  0  0  0
  -22.3674    2.5522  -13.9954 N   0  0  0  0  0  0  0  0  0  0  0  0
  -23.2042    1.5785  -13.6482 C   0  0  0  0  0  0  0  0  0  0  0  0
  -22.9384    0.2544  -13.8690 C   0  0  0  0  0  0  0  0  0  0  0  0
  -21.6666   -0.1468  -14.3087 N   0  0  0  0  0  0  0  0  0  0  0  0
  -20.7009    0.8678  -14.5984 C   0  0  0  0  0  0  0  0  0  0  0  0
  -19.2604    0.8209  -14.9466 C   0  0  0  0  0  0  0  0  0  0  0  0
  -24.0981   -0.6403  -13.6933 C   0  0  0  0  0  0  0  0  0  0  0  0
  -24.9641   -1.2105  -14.6768 C   0  0  0  0  0  0  0  0  0  0  0  0
  -26.1278   -1.6525  -14.1752 N   0  0  0  0  0  0  0  0  0  0  0  0
  -26.0450   -1.3404  -12.8723 N   0  0  0  0  0  0  0  0  0  0  0  0
  -27.0205   -1.8397  -11.9278 C   0  0  0  0  0  0  0  0  0  0  0  0
  -24.9341   -0.5924  -12.5805 C   0  0  0  0  0  0  0  0  0  0  0  0
  -14.9087    3.9780  -17.7697 C   0  0  0  0  0  0  0  0  0  0  0  0
  -14.0748    2.9498  -18.2080 C   0  0  0  0  0  0  0  0  0  0  0  0
  -14.2461    1.6618  -17.7056 C   0  0  0  0  0  0  0  0  0  0  0  0
  -15.2562    1.4059  -16.7652 C   0  0  0  0  0  0  0  0  0  0  0  0
  -16.1271    2.4055  -16.3023 C   0  0  0  0  0  0  0  0  0  0  0  0
  -15.9375    3.6968  -16.8405 C   0  0  0  0  0  0  0  0  0  0  0  0
  -13.4907    5.8949  -18.0005 C   0  0  0  0  0  0  0  0  0  0  0  0
  -14.7778    5.2905  -18.1574 O   0  0  0  0  0  0  0  0  0  0  0  0
  -13.4692    0.5770  -18.0232 O   0  0  0  0  0  0  0  0  0  0  0  0
  -13.7179   -0.0459  -19.2794 C   0  0  0  0  0  0  0  0  0  0  0  0
  -16.4766    1.4492  -14.0153 C   0  0  0  0  0  0  0  0  0  0  0  0
  -16.3470   -0.0986  -14.0256 C   0  0  0  0  0  0  0  0  0  0  0  0
  -15.1275   -0.7472  -13.3478 C   0  0  0  0  0  0  0  0  0  0  0  0
  -15.5286   -1.8088  -12.3992 N   0  0  0  0  0  0  0  0  0  0  0  0
  -14.6248   -2.6764  -11.8009 C   0  0  0  0  0  0  0  0  0  0  0  0
  -13.4233   -2.6258  -12.0400 O   0  0  0  0  0  0  0  0  0  0  0  0
  -16.4900   -1.8293  -12.0680 H   0  0  0  0  0  0  0  0  0  0  0  0
  -15.2181   -3.6947  -10.7928 C   0  0  0  0  0  0  0  0  0  0  0  0
  -14.1318   -4.1676   -9.8102 C   0  0  0  0  0  0  0  0  0  0  0  0
  -16.2381   -3.0221  -10.0099 O   0  0  0  0  0  0  0  0  0  0  0  0
  -15.7841   -2.4065   -9.4067 H   0  0  0  0  0  0  0  0  0  0  0  0
  -15.7755   -4.9096  -11.5728 C   0  0  0  0  0  0  0  0  0  0  0  0
  -15.5877   -4.8259  -12.9079 F   0  0  0  0  0  0  0  0  0  0  0  0
  -15.2112   -6.0785  -11.1716 F   0  0  0  0  0  0  0  0  0  0  0  0
  -17.1121   -5.0547  -11.3795 F   0  0  0  0  0  0  0  0  0  0  0  0
 24 25  1  0  0  0
 25 18  1  0  0  0
 18 19  1  0  0  0
 18 23  2  0  0  0
 19 20  2  0  0  0
 20 26  1  0  0  0
 20 21  1  0  0  0
 26 27  1  0  0  0
 21 22  2  0  0  0
 22  1  1  0  0  0
 22 23  1  0  0  0
  1 28  1  0  0  0
  1  2  1  0  0  0
 28 29  1  0  0  0
 29 30  1  0  0  0
 30 31  1  0  0  0
 31 32  1  0  0  0
 31 34  1  0  0  0
 32 33  2  0  0  0
 32 35  1  0  0  0
 35 36  1  0  0  0
 35 37  1  0  0  0
 35 39  1  0  0  0
 37 38  1  0  0  0
 39 40  1  0  0  0
 39 41  1  0  0  0
 39 42  1  0  0  0
  2  3  1  0  0  0
  2 11  2  0  0  0
  3  4  2  0  0  0
  4  5  1  0  0  0
  5  6  1  0  0  0
  5 10  2  0  0  0
  6  7  2  0  0  0
  7  8  1  0  0  0
  8 12  1  0  0  0
  8  9  2  0  0  0
 12 13  1  0  0  0
 12 17  2  0  0  0
 13 14  2  0  0  0
 14 15  1  0  0  0
 15 16  1  0  0  0
 15 17  1  0  0  0
  9 10  1  0  0  0
 10 11  1  0  0  0
M  END
> <minimizedAffinity>
-9.79661

$$$$
