CHEMBL2088100


 31 34  0  0  0  0  0  0  0  0999 V2000
  -23.5194   10.1476  -17.6387 N   0  0  0  0  0  0  0  0  0  0  0  0
  -23.6642    9.1685  -17.8546 H   0  0  0  0  0  0  0  0  0  0  0  0
  -26.6827   10.6236  -15.9861 C   0  0  0  0  0  0  0  0  0  0  0  0
  -26.4890   11.7100  -15.2328 N   0  0  0  0  0  0  0  0  0  0  0  0
  -25.2679   12.2686  -15.2772 C   0  0  0  0  0  0  0  0  0  0  0  0
  -24.2339   11.7711  -16.0297 C   0  0  0  0  0  0  0  0  0  0  0  0
  -24.5188   10.6518  -16.7791 C   0  0  0  0  0  0  0  0  0  0  0  0
  -25.7385   10.0781  -16.7539 N   0  0  0  0  0  0  0  0  0  0  0  0
  -27.9649   10.1152  -15.9768 N   0  0  0  0  0  0  0  0  0  0  0  0
  -28.0215    9.4484  -16.7375 H   0  0  0  0  0  0  0  0  0  0  0  0
  -29.0447   11.0837  -15.9392 C   0  0  0  0  0  0  0  0  0  0  0  0
  -32.5090   11.0835  -12.1878 C   0  0  0  0  0  0  0  0  0  0  0  0
  -31.3438   10.8688  -13.0758 C   0  0  0  0  0  0  0  0  0  0  0  0
  -31.1350   11.3746  -14.3759 C   0  0  0  0  0  0  0  0  0  0  0  0
  -29.8990   10.8962  -14.7353 C   0  0  0  0  0  0  0  0  0  0  0  0
  -29.4001   10.1402  -13.7211 O   0  0  0  0  0  0  0  0  0  0  0  0
  -30.3083   10.1199  -12.6738 N   0  0  0  0  0  0  0  0  0  0  0  0
  -22.8856   10.8495  -18.5998 C   0  0  0  0  0  0  0  0  0  0  0  0
  -21.4833   11.0071  -18.6815 C   0  0  0  0  0  0  0  0  0  0  0  0
  -21.2617   11.8143  -19.7722 C   0  0  0  0  0  0  0  0  0  0  0  0
  -22.5051   12.0372  -20.3002 N   0  0  0  0  0  0  0  0  0  0  0  0
  -23.5006   11.4389  -19.6262 N   0  0  0  0  0  0  0  0  0  0  0  0
  -22.7531   12.5978  -21.1085 H   0  0  0  0  0  0  0  0  0  0  0  0
  -19.9897   12.3642  -20.3257 C   0  0  0  0  0  0  0  0  0  0  0  0
  -18.7513   11.8117  -19.6164 C   0  0  0  0  0  0  0  0  0  0  0  0
  -18.0866   10.6573  -20.3232 C   0  0  0  0  0  0  0  0  0  0  0  0
  -16.7771   10.2714  -20.0064 C   0  0  0  0  0  0  0  0  0  0  0  0
  -16.2081    9.1451  -20.6029 C   0  0  0  0  0  0  0  0  0  0  0  0
  -16.9431    8.3929  -21.5173 C   0  0  0  0  0  0  0  0  0  0  0  0
  -18.2414    8.7689  -21.8468 C   0  0  0  0  0  0  0  0  0  0  0  0
  -18.8126    9.8946  -21.2514 C   0  0  0  0  0  0  0  0  0  0  0  0
 12 13  1  0  0  0
 13 14  1  0  0  0
 13 17  2  0  0  0
 14 15  2  0  0  0
 15 11  1  0  0  0
 15 16  1  0  0  0
 11  9  1  0  0  0
  9  3  1  0  0  0
  9 10  1  0  0  0
  3  4  1  0  0  0
  3  8  2  0  0  0
  4  5  2  0  0  0
  5  6  1  0  0  0
  6  7  2  0  0  0
  7  1  1  0  0  0
  7  8  1  0  0  0
  1 18  1  0  0  0
  1  2  1  0  0  0
 18 19  1  0  0  0
 18 22  2  0  0  0
 19 20  2  0  0  0
 20 24  1  0  0  0
 20 21  1  0  0  0
 24 25  1  0  0  0
 25 26  1  0  0  0
 26 27  1  0  0  0
 26 31  2  0  0  0
 27 28  2  0  0  0
 28 29  1  0  0  0
 29 30  2  0  0  0
 30 31  1  0  0  0
 21 22  1  0  0  0
 21 23  1  0  0  0
 16 17  1  0  0  0
M  END
> <minimizedAffinity>
-7.18589

$$$$
