CHEMBL219676


 28 30  0  0  0  0  0  0  0  0999 V2000
  -30.1846   -8.9155   -7.5635 C   0  0  0  0  0  0  0  0  0  0  0  0
  -31.2626   -9.4714   -8.2518 C   0  0  0  0  0  0  0  0  0  0  0  0
  -31.1161  -10.4933   -9.1837 N   0  0  0  0  0  0  0  0  0  0  0  0
  -32.5414   -9.1411   -7.9982 N   0  0  0  0  0  0  0  0  0  0  0  0
  -32.7527   -8.2649   -7.0135 C   0  0  0  0  0  0  0  0  0  0  0  0
  -31.8051   -7.6750   -6.2818 N   0  0  0  0  0  0  0  0  0  0  0  0
  -30.5252   -7.9800   -6.5986 C   0  0  0  0  0  0  0  0  0  0  0  0
  -30.3104  -10.3417   -9.7938 H   0  0  0  0  0  0  0  0  0  0  0  0
  -31.9940  -10.6481   -9.6697 H   0  0  0  0  0  0  0  0  0  0  0  0
  -28.2560   -8.9939   -9.0384 N   0  0  0  0  0  0  0  0  0  0  0  0
  -28.7906   -9.2918   -7.8900 C   0  0  0  0  0  0  0  0  0  0  0  0
  -26.9465   -9.5114   -9.1158 O   0  0  0  0  0  0  0  0  0  0  0  0
  -26.9102  -10.6406  -10.0180 C   0  0  0  0  0  0  0  0  0  0  0  0
  -28.8061  -10.1859  -12.0609 C   0  0  0  0  0  0  0  0  0  0  0  0
  -27.9307  -10.3959  -11.1177 C   0  0  0  0  0  0  0  0  0  0  0  0
  -29.5233   -7.2805   -5.9239 O   0  0  0  0  0  0  0  0  0  0  0  0
  -29.3571   -5.9352   -6.2357 C   0  0  0  0  0  0  0  0  0  0  0  0
  -28.8949   -5.4993   -7.4835 C   0  0  0  0  0  0  0  0  0  0  0  0
  -28.6990   -4.1406   -7.7624 C   0  0  0  0  0  0  0  0  0  0  0  0
  -28.9748   -3.2214   -6.7464 C   0  0  0  0  0  0  0  0  0  0  0  0
  -28.8828   -1.8470   -6.7506 N   0  0  0  0  0  0  0  0  0  0  0  0
  -29.4148   -1.3372   -5.5897 C   0  0  0  0  0  0  0  0  0  0  0  0
  -29.6655    0.1166   -5.4186 C   0  0  0  0  0  0  0  0  0  0  0  0
  -29.6618   -2.4072   -4.7531 C   0  0  0  0  0  0  0  0  0  0  0  0
  -29.4334   -3.6096   -5.4866 C   0  0  0  0  0  0  0  0  0  0  0  0
  -29.6029   -4.9899   -5.2307 C   0  0  0  0  0  0  0  0  0  0  0  0
  -30.0363   -5.3969   -4.0232 F   0  0  0  0  0  0  0  0  0  0  0  0
  -28.5511   -1.2978   -7.5291 H   0  0  0  0  0  0  0  0  0  0  0  0
 14 15  3  0  0  0
 15 13  1  0  0  0
 13 12  1  0  0  0
 12 10  1  0  0  0
 10 11  2  0  0  0
 11  1  1  0  0  0
  1  2  1  0  0  0
  1  7  2  0  0  0
  2  3  1  0  0  0
  2  4  2  0  0  0
  3  8  1  0  0  0
  3  9  1  0  0  0
  4  5  1  0  0  0
  5  6  2  0  0  0
  6  7  1  0  0  0
  7 16  1  0  0  0
 16 17  1  0  0  0
 17 18  1  0  0  0
 17 26  2  0  0  0
 18 19  2  0  0  0
 19 20  1  0  0  0
 20 21  1  0  0  0
 20 25  2  0  0  0
 21 22  1  0  0  0
 21 28  1  0  0  0
 22 23  1  0  0  0
 22 24  2  0  0  0
 24 25  1  0  0  0
 25 26  1  0  0  0
 26 27  1  0  0  0
M  END
> <minimizedAffinity>
-7.68494

$$$$
