CHEMBL385956


 35 38  0  0  0  0  0  0  0  0999 V2000
  -31.6067   -7.6853   -7.2995 C   0  0  0  0  0  0  0  0  0  0  0  0
  -30.4925   -8.2957   -6.4935 C   0  0  0  0  0  0  0  0  0  0  0  0
  -30.3747   -9.7005   -6.4752 C   0  0  0  0  0  0  0  0  0  0  0  0
  -29.3090  -10.3259   -5.8255 C   0  0  0  0  0  0  0  0  0  0  0  0
  -28.3175   -9.5503   -5.2324 C   0  0  0  0  0  0  0  0  0  0  0  0
  -28.4231   -8.1651   -5.2698 C   0  0  0  0  0  0  0  0  0  0  0  0
  -29.5525   -7.5162   -5.7909 C   0  0  0  0  0  0  0  0  0  0  0  0
  -27.1470  -10.2054   -4.5911 C   0  0  0  0  0  0  0  0  0  0  0  0
  -27.3489  -10.9015   -3.6020 O   0  0  0  0  0  0  0  0  0  0  0  0
  -25.9104   -9.9069   -5.1564 N   0  0  0  0  0  0  0  0  0  0  0  0
  -25.8848   -9.1517   -5.8319 H   0  0  0  0  0  0  0  0  0  0  0  0
  -24.6689  -10.4280   -4.7326 C   0  0  0  0  0  0  0  0  0  0  0  0
  -24.3123  -10.5378   -3.3880 C   0  0  0  0  0  0  0  0  0  0  0  0
  -23.0522  -11.0044   -3.0178 C   0  0  0  0  0  0  0  0  0  0  0  0
  -22.1258  -11.3620   -3.9926 C   0  0  0  0  0  0  0  0  0  0  0  0
  -22.4653  -11.2866   -5.3508 C   0  0  0  0  0  0  0  0  0  0  0  0
  -23.7542  -10.8413   -5.7100 C   0  0  0  0  0  0  0  0  0  0  0  0
  -21.4581  -11.6332   -6.4167 C   0  0  0  0  0  0  0  0  0  0  0  0
  -21.9975  -12.2633   -7.4982 F   0  0  0  0  0  0  0  0  0  0  0  0
  -20.8186  -10.5345   -6.9066 F   0  0  0  0  0  0  0  0  0  0  0  0
  -20.4761  -12.4596   -5.9591 F   0  0  0  0  0  0  0  0  0  0  0  0
  -29.6774   -6.1199   -5.6271 N   0  0  0  0  0  0  0  0  0  0  0  0
  -29.7913   -5.7964   -4.6676 H   0  0  0  0  0  0  0  0  0  0  0  0
  -29.0067   -5.1123   -6.3860 C   0  0  0  0  0  0  0  0  0  0  0  0
  -28.5819   -5.4242   -7.6454 N   0  0  0  0  0  0  0  0  0  0  0  0
  -28.1129   -4.4550   -8.4469 C   0  0  0  0  0  0  0  0  0  0  0  0
  -28.0079   -3.1431   -8.0555 C   0  0  0  0  0  0  0  0  0  0  0  0
  -28.3819   -2.8241   -6.7545 C   0  0  0  0  0  0  0  0  0  0  0  0
  -28.9067   -3.7996   -5.8755 C   0  0  0  0  0  0  0  0  0  0  0  0
  -29.3665   -3.4351   -4.5154 C   0  0  0  0  0  0  0  0  0  0  0  0
  -28.5592   -2.7605   -3.6138 C   0  0  0  0  0  0  0  0  0  0  0  0
  -29.1310   -2.4055   -2.4133 C   0  0  0  0  0  0  0  0  0  0  0  0
  -30.4000   -2.6908   -2.0830 N   0  0  0  0  0  0  0  0  0  0  0  0
  -31.0984   -3.3637   -3.0045 C   0  0  0  0  0  0  0  0  0  0  0  0
  -30.6470   -3.7613   -4.2055 N   0  0  0  0  0  0  0  0  0  0  0  0
  1  2  1  0  0  0
  2  3  1  0  0  0
  2  7  2  0  0  0
  3  4  2  0  0  0
  4  5  1  0  0  0
  5  8  1  0  0  0
  5  6  2  0  0  0
  8  9  2  0  0  0
  8 10  1  0  0  0
 10 12  1  0  0  0
 10 11  1  0  0  0
 12 13  1  0  0  0
 12 17  2  0  0  0
 13 14  2  0  0  0
 14 15  1  0  0  0
 15 16  2  0  0  0
 16 18  1  0  0  0
 16 17  1  0  0  0
 18 19  1  0  0  0
 18 20  1  0  0  0
 18 21  1  0  0  0
  6  7  1  0  0  0
  7 22  1  0  0  0
 22 24  1  0  0  0
 22 23  1  0  0  0
 24 25  1  0  0  0
 24 29  2  0  0  0
 25 26  2  0  0  0
 26 27  1  0  0  0
 27 28  2  0  0  0
 28 29  1  0  0  0
 29 30  1  0  0  0
 30 31  1  0  0  0
 30 35  2  0  0  0
 31 32  2  0  0  0
 32 33  1  0  0  0
 33 34  2  0  0  0
 34 35  1  0  0  0
M  END
> <minimizedAffinity>
-8.27638

$$$$
