CHEMBL375570


 42 48  0  0  0  0  0  0  0  0999 V2000
  -30.1490   -5.1521   -5.7907 N   0  0  0  0  0  0  0  0  0  0  0  0
  -29.4088   -4.1811   -6.5037 C   0  0  0  0  0  0  0  0  0  0  0  0
  -29.4942   -2.7829   -6.5398 C   0  0  0  0  0  0  0  0  0  0  0  0
  -28.6396   -2.0750   -7.4125 C   0  0  0  0  0  0  0  0  0  0  0  0
  -27.7036   -2.7154   -8.2267 C   0  0  0  0  0  0  0  0  0  0  0  0
  -27.6456   -4.1094   -8.1908 C   0  0  0  0  0  0  0  0  0  0  0  0
  -28.5170   -4.8451   -7.3612 C   0  0  0  0  0  0  0  0  0  0  0  0
  -28.8722   -6.1628   -7.1755 C   0  0  0  0  0  0  0  0  0  0  0  0
  -28.5762   -7.1634   -8.1109 C   0  0  0  0  0  0  0  0  0  0  0  0
  -29.4078   -8.2979   -8.0613 C   0  0  0  0  0  0  0  0  0  0  0  0
  -30.3756   -8.5158   -7.0638 C   0  0  0  0  0  0  0  0  0  0  0  0
  -30.1228   -7.7619   -5.8701 C   0  0  0  0  0  0  0  0  0  0  0  0
  -29.7185   -6.4341   -6.1362 C   0  0  0  0  0  0  0  0  0  0  0  0
  -29.4546   -8.6643   -4.7454 C   0  0  0  0  0  0  0  0  0  0  0  0
  -29.0325  -10.1158   -5.2320 C   0  0  0  0  0  0  0  0  0  0  0  0
  -30.2106  -10.6842   -5.9417 C   0  0  0  0  0  0  0  0  0  0  0  0
  -30.9262  -11.7564   -5.6063 N   0  0  0  0  0  0  0  0  0  0  0  0
  -32.0941  -11.5464   -6.2658 N   0  0  0  0  0  0  0  0  0  0  0  0
  -33.2092  -12.4339   -6.0426 C   0  0  0  0  0  0  0  0  0  0  0  0
  -32.1486  -10.3377   -6.9174 C   0  0  0  0  0  0  0  0  0  0  0  0
  -30.8683   -9.8527   -6.8613 C   0  0  0  0  0  0  0  0  0  0  0  0
  -28.9538   -9.2040   -9.0901 C   0  0  0  0  0  0  0  0  0  0  0  0
  -29.2834  -10.3287   -9.4376 O   0  0  0  0  0  0  0  0  0  0  0  0
  -27.8863   -8.5417   -9.6849 N   0  0  0  0  0  0  0  0  0  0  0  0
  -27.5937   -7.2202   -9.1844 C   0  0  0  0  0  0  0  0  0  0  0  0
  -27.3380   -9.0227  -10.3804 H   0  0  0  0  0  0  0  0  0  0  0  0
  -26.8023   -2.0622   -9.1033 N   0  0  0  0  0  0  0  0  0  0  0  0
  -26.7655   -2.1758  -10.4833 C   0  0  0  0  0  0  0  0  0  0  0  0
  -27.5157   -2.9178  -11.1199 O   0  0  0  0  0  0  0  0  0  0  0  0
  -25.8008   -1.3771  -11.0671 N   0  0  0  0  0  0  0  0  0  0  0  0
  -26.1225   -1.4445   -8.6858 H   0  0  0  0  0  0  0  0  0  0  0  0
  -24.9897   -1.1392  -10.5131 H   0  0  0  0  0  0  0  0  0  0  0  0
  -25.6414   -1.2403  -12.4782 C   0  0  0  0  0  0  0  0  0  0  0  0
  -26.7066   -1.4796  -13.3594 C   0  0  0  0  0  0  0  0  0  0  0  0
  -26.5276   -1.4563  -14.7434 C   0  0  0  0  0  0  0  0  0  0  0  0
  -25.2803   -1.1544  -15.2754 C   0  0  0  0  0  0  0  0  0  0  0  0
  -24.2237   -0.8384  -14.4220 C   0  0  0  0  0  0  0  0  0  0  0  0
  -24.4042   -0.8690  -13.0308 C   0  0  0  0  0  0  0  0  0  0  0  0
  -22.9198   -0.4155  -11.9350 Br  0  0  0  0  0  0  0  0  0  0  0  0
  -31.2865   -4.8321   -4.9338 C   0  0  0  0  0  0  0  0  0  0  0  0
  -30.5507   -3.1717   -3.1166 C   0  0  0  0  0  0  0  0  0  0  0  0
  -30.9513   -4.6011   -3.4502 C   0  0  0  0  0  0  0  0  0  0  0  0
 41 42  1  0  0  0
 42 40  1  0  0  0
 40  1  1  0  0  0
  1  2  1  0  0  0
  1 13  1  0  0  0
  2  3  1  0  0  0
  2  7  2  0  0  0
  3  4  2  0  0  0
  4  5  1  0  0  0
  5 27  1  0  0  0
  5  6  2  0  0  0
 27 28  1  0  0  0
 27 31  1  0  0  0
 28 29  2  0  0  0
 28 30  1  0  0  0
 30 33  1  0  0  0
 30 32  1  0  0  0
 33 34  1  0  0  0
 33 38  2  0  0  0
 34 35  2  0  0  0
 35 36  1  0  0  0
 36 37  2  0  0  0
 37 38  1  0  0  0
 38 39  1  0  0  0
  6  7  1  0  0  0
  7  8  1  0  0  0
  8  9  1  0  0  0
  8 13  2  0  0  0
  9 10  2  0  0  0
  9 25  1  0  0  0
 10 11  1  0  0  0
 10 22  1  0  0  0
 11 12  2  0  0  0
 11 21  1  0  0  0
 12 13  1  0  0  0
 12 14  1  0  0  0
 14 15  1  0  0  0
 15 16  1  0  0  0
 16 17  2  0  0  0
 16 21  1  0  0  0
 17 18  1  0  0  0
 18 19  1  0  0  0
 18 20  1  0  0  0
 20 21  2  0  0  0
 22 23  2  0  0  0
 22 24  1  0  0  0
 24 25  1  0  0  0
 24 26  1  0  0  0
M  END
> <minimizedAffinity>
-9.53199

$$$$
