CHEMBL3964812


 39 43  0  0  0  0  0  0  0  0999 V2000
  -28.6991   -2.5828   -7.7774 C   0  0  0  0  0  0  0  0  0  0  0  0
  -28.5478   -2.1250   -6.4662 C   0  0  0  0  0  0  0  0  0  0  0  0
  -28.7699   -2.9736   -5.3861 C   0  0  0  0  0  0  0  0  0  0  0  0
  -29.1757   -4.2863   -5.6073 C   0  0  0  0  0  0  0  0  0  0  0  0
  -29.4075   -4.7536   -6.9104 C   0  0  0  0  0  0  0  0  0  0  0  0
  -29.1529   -3.8910   -7.9897 C   0  0  0  0  0  0  0  0  0  0  0  0
  -30.0652   -6.1078   -7.1680 C   0  0  0  0  0  0  0  0  0  0  0  0
  -29.1379   -7.1481   -7.8328 C   0  0  0  0  0  0  0  0  0  0  0  0
  -29.3160   -8.5522   -7.3373 N   0  0  0  0  0  0  0  0  0  0  0  0
  -29.3819   -8.6325   -6.0457 C   0  0  0  0  0  0  0  0  0  0  0  0
  -29.0903   -9.8361   -5.2687 C   0  0  0  0  0  0  0  0  0  0  0  0
  -29.7151  -11.0650   -5.3762 C   0  0  0  0  0  0  0  0  0  0  0  0
  -29.2806  -12.0943   -4.5342 C   0  0  0  0  0  0  0  0  0  0  0  0
  -28.1585  -11.9161   -3.7078 C   0  0  0  0  0  0  0  0  0  0  0  0
  -27.5787  -10.6566   -3.5684 C   0  0  0  0  0  0  0  0  0  0  0  0
  -28.1683   -9.6025   -4.2488 C   0  0  0  0  0  0  0  0  0  0  0  0
  -28.1636   -8.3148   -3.6579 N   0  0  0  0  0  0  0  0  0  0  0  0
  -29.2704   -7.5048   -3.9380 C   0  0  0  0  0  0  0  0  0  0  0  0
  -29.8511   -6.8679   -3.0668 O   0  0  0  0  0  0  0  0  0  0  0  0
  -29.6357   -7.5361   -5.2670 N   0  0  0  0  0  0  0  0  0  0  0  0
  -30.6020   -6.6382   -5.8468 C   0  0  0  0  0  0  0  0  0  0  0  0
  -27.2864   -7.8290   -3.8072 H   0  0  0  0  0  0  0  0  0  0  0  0
  -26.4661   -2.8212   -9.6033 O   0  0  0  0  0  0  0  0  0  0  0  0
  -27.3381   -1.9756   -9.7631 C   0  0  0  0  0  0  0  0  0  0  0  0
  -28.4170   -1.7976   -8.9171 N   0  0  0  0  0  0  0  0  0  0  0  0
  -27.3843   -1.1102  -10.8412 N   0  0  0  0  0  0  0  0  0  0  0  0
  -29.1601   -1.2018   -9.2475 H   0  0  0  0  0  0  0  0  0  0  0  0
  -28.0513   -0.3513  -10.8126 H   0  0  0  0  0  0  0  0  0  0  0  0
  -26.5280   -1.1297  -11.9660 C   0  0  0  0  0  0  0  0  0  0  0  0
  -25.2316   -0.6133  -11.9598 C   0  0  0  0  0  0  0  0  0  0  0  0
  -24.4147   -0.6683  -13.1091 C   0  0  0  0  0  0  0  0  0  0  0  0
  -24.9280   -1.2592  -14.2726 C   0  0  0  0  0  0  0  0  0  0  0  0
  -26.2100   -1.7863  -14.2838 C   0  0  0  0  0  0  0  0  0  0  0  0
  -27.0076   -1.7207  -13.1332 C   0  0  0  0  0  0  0  0  0  0  0  0
  -28.2410   -2.2429  -13.1591 F   0  0  0  0  0  0  0  0  0  0  0  0
  -23.0117   -0.1133  -13.0686 C   0  0  0  0  0  0  0  0  0  0  0  0
  -22.3821   -0.2722  -11.8699 F   0  0  0  0  0  0  0  0  0  0  0  0
  -22.1983   -0.6997  -13.9913 F   0  0  0  0  0  0  0  0  0  0  0  0
  -22.9729    1.2222  -13.3324 F   0  0  0  0  0  0  0  0  0  0  0  0
 23 24  2  0  0  0
 24 25  1  0  0  0
 24 26  1  0  0  0
 25  1  1  0  0  0
 25 27  1  0  0  0
  1  2  1  0  0  0
  1  6  2  0  0  0
  2  3  2  0  0  0
  3  4  1  0  0  0
  4  5  2  0  0  0
  5  7  1  0  0  0
  5  6  1  0  0  0
  7  8  1  0  0  0
  7 21  1  0  0  0
  8  9  1  0  0  0
  9 10  2  0  0  0
 10 11  1  0  0  0
 10 20  1  0  0  0
 11 12  1  0  0  0
 11 16  2  0  0  0
 12 13  2  0  0  0
 13 14  1  0  0  0
 14 15  2  0  0  0
 15 16  1  0  0  0
 16 17  1  0  0  0
 17 18  1  0  0  0
 17 22  1  0  0  0
 18 19  2  0  0  0
 18 20  1  0  0  0
 20 21  1  0  0  0
 26 29  1  0  0  0
 26 28  1  0  0  0
 29 30  1  0  0  0
 29 34  2  0  0  0
 30 31  2  0  0  0
 31 36  1  0  0  0
 31 32  1  0  0  0
 36 37  1  0  0  0
 36 38  1  0  0  0
 36 39  1  0  0  0
 32 33  2  0  0  0
 33 34  1  0  0  0
 34 35  1  0  0  0
M  END
> <minimizedAffinity>
-11.75342

$$$$
