CHEMBL3104851


 32 35  0  0  0  0  0  0  0  0999 V2000
  -12.9328   -3.5872   -8.8735 C   0  0  0  0  0  0  0  0  0  0  0  0
  -13.2035   -4.6985   -9.8569 C   0  0  0  0  0  0  0  0  0  0  0  0
  -12.4030   -5.8503   -9.9072 C   0  0  0  0  0  0  0  0  0  0  0  0
  -11.3336   -6.0956   -9.0811 O   0  0  0  0  0  0  0  0  0  0  0  0
  -12.6433   -6.8567  -10.8483 C   0  0  0  0  0  0  0  0  0  0  0  0
  -11.8171   -7.9518  -10.8664 O   0  0  0  0  0  0  0  0  0  0  0  0
  -13.6838   -6.7521  -11.7625 C   0  0  0  0  0  0  0  0  0  0  0  0
  -14.5299   -5.6362  -11.7264 C   0  0  0  0  0  0  0  0  0  0  0  0
  -14.2842   -4.5986  -10.7840 C   0  0  0  0  0  0  0  0  0  0  0  0
  -15.6203   -5.5788  -12.7679 C   0  0  0  0  0  0  0  0  0  0  0  0
  -15.9614   -6.8777  -13.2196 O   0  0  0  0  0  0  0  0  0  0  0  0
  -14.7958   -7.5275  -13.7011 C   0  0  0  0  0  0  0  0  0  0  0  0
  -13.8241   -7.7607  -12.6817 O   0  0  0  0  0  0  0  0  0  0  0  0
  -14.1694   -6.7943  -14.8822 C   0  0  0  0  0  0  0  0  0  0  0  0
  -13.3643   -7.4661  -15.8459 C   0  0  0  0  0  0  0  0  0  0  0  0
  -13.1539   -8.9583  -15.8227 C   0  0  0  0  0  0  0  0  0  0  0  0
  -12.7524   -6.6970  -16.8494 C   0  0  0  0  0  0  0  0  0  0  0  0
  -11.9563   -7.2240  -17.8335 O   0  0  0  0  0  0  0  0  0  0  0  0
  -12.9151   -5.3147  -16.8923 C   0  0  0  0  0  0  0  0  0  0  0  0
  -12.2856   -4.5751  -17.8614 O   0  0  0  0  0  0  0  0  0  0  0  0
  -13.7012   -4.6540  -15.9610 C   0  0  0  0  0  0  0  0  0  0  0  0
  -13.7821   -3.2938  -16.0471 O   0  0  0  0  0  0  0  0  0  0  0  0
  -14.3452   -5.3853  -14.9647 C   0  0  0  0  0  0  0  0  0  0  0  0
  -15.2073   -4.7170  -13.9489 C   0  0  0  0  0  0  0  0  0  0  0  0
  -15.5410   -3.5373  -14.0126 O   0  0  0  0  0  0  0  0  0  0  0  0
  -11.2242   -5.3776   -8.4396 H   0  0  0  0  0  0  0  0  0  0  0  0
  -11.1825   -7.7930  -10.1389 H   0  0  0  0  0  0  0  0  0  0  0  0
  -11.8809   -8.1853  -17.7174 H   0  0  0  0  0  0  0  0  0  0  0  0
  -11.7967   -5.2376  -18.3923 H   0  0  0  0  0  0  0  0  0  0  0  0
  -13.2385   -3.0410  -16.8196 H   0  0  0  0  0  0  0  0  0  0  0  0
  -15.1788   -3.3906  -10.7912 C   0  0  0  0  0  0  0  0  0  0  0  0
  -16.2643   -3.3326  -10.2270 O   0  0  0  0  0  0  0  0  0  0  0  0
  1  2  1  0  0  0
  2  3  1  0  0  0
  2  9  2  0  0  0
  3  4  1  0  0  0
  3  5  2  0  0  0
  4 26  1  0  0  0
  5  6  1  0  0  0
  5  7  1  0  0  0
  6 27  1  0  0  0
  7  8  2  0  0  0
  7 13  1  0  0  0
  8  9  1  0  0  0
  8 10  1  0  0  0
  9 31  1  0  0  0
 31 32  2  0  0  0
 10 11  1  0  0  0
 10 24  1  0  0  0
 11 12  1  0  0  0
 12 13  1  0  0  0
 12 14  1  0  0  0
 14 15  1  0  0  0
 14 23  2  0  0  0
 15 16  1  0  0  0
 15 17  2  0  0  0
 17 18  1  0  0  0
 17 19  1  0  0  0
 18 28  1  0  0  0
 19 20  1  0  0  0
 19 21  2  0  0  0
 20 29  1  0  0  0
 21 22  1  0  0  0
 21 23  1  0  0  0
 22 30  1  0  0  0
 23 24  1  0  0  0
 24 25  2  0  0  0
M  END
> <minimizedAffinity>
-7.67576

$$$$
