CHEMBL523684


 36 39  0  0  0  0  0  0  0  0999 V2000
  -16.4745    0.8726  -14.9445 C   0  0  0  0  0  0  0  0  0  0  0  0
  -15.5693    1.4138  -15.8525 C   0  0  0  0  0  0  0  0  0  0  0  0
  -15.8267    2.6389  -16.4668 C   0  0  0  0  0  0  0  0  0  0  0  0
  -16.9960    3.3446  -16.1802 C   0  0  0  0  0  0  0  0  0  0  0  0
  -17.9329    2.8270  -15.2789 C   0  0  0  0  0  0  0  0  0  0  0  0
  -17.6505    1.5839  -14.6751 C   0  0  0  0  0  0  0  0  0  0  0  0
  -15.6356   -0.5819  -13.0843 C   0  0  0  0  0  0  0  0  0  0  0  0
  -15.1791    0.3167  -12.3803 O   0  0  0  0  0  0  0  0  0  0  0  0
  -16.2761   -0.3685  -14.2970 N   0  0  0  0  0  0  0  0  0  0  0  0
  -16.7021   -1.1799  -14.7298 H   0  0  0  0  0  0  0  0  0  0  0  0
  -15.3920   -4.4662  -12.4752 C   0  0  0  0  0  0  0  0  0  0  0  0
  -15.6806   -3.8603  -11.2637 C   0  0  0  0  0  0  0  0  0  0  0  0
  -15.7886   -2.4433  -11.3569 C   0  0  0  0  0  0  0  0  0  0  0  0
  -15.5705   -1.9777  -12.6407 C   0  0  0  0  0  0  0  0  0  0  0  0
  -15.1990   -3.2717  -13.7007 S   0  0  0  0  0  0  0  0  0  0  0  0
  -14.4285   -6.6324  -12.0382 C   0  0  0  0  0  0  0  0  0  0  0  0
  -15.2231   -5.8493  -12.7868 C   0  0  0  0  0  0  0  0  0  0  0  0
  -14.7568   -8.6200  -13.3213 O   0  0  0  0  0  0  0  0  0  0  0  0
  -14.1804   -8.0546  -12.3999 C   0  0  0  0  0  0  0  0  0  0  0  0
  -13.2215   -8.6418  -11.6165 N   0  0  0  0  0  0  0  0  0  0  0  0
  -12.8743   -9.9861  -11.8619 O   0  0  0  0  0  0  0  0  0  0  0  0
  -12.7720   -8.2052  -10.8213 H   0  0  0  0  0  0  0  0  0  0  0  0
  -13.0049  -10.0798  -12.8276 H   0  0  0  0  0  0  0  0  0  0  0  0
  -19.1546    3.5121  -15.0782 N   0  0  0  0  0  0  0  0  0  0  0  0
  -19.1789    4.4657  -15.4050 H   0  0  0  0  0  0  0  0  0  0  0  0
  -20.3146    2.9293  -14.6875 C   0  0  0  0  0  0  0  0  0  0  0  0
  -21.3982    3.5750  -14.3209 N   0  0  0  0  0  0  0  0  0  0  0  0
  -22.3760    2.7155  -13.9039 C   0  0  0  0  0  0  0  0  0  0  0  0
  -22.0525    1.3760  -13.9374 C   0  0  0  0  0  0  0  0  0  0  0  0
  -20.4665    1.2120  -14.5892 S   0  0  0  0  0  0  0  0  0  0  0  0
  -22.8630    0.2287  -13.5291 C   0  0  0  0  0  0  0  0  0  0  0  0
  -22.6257   -0.4114  -12.3043 C   0  0  0  0  0  0  0  0  0  0  0  0
  -23.3979   -1.5066  -11.9341 C   0  0  0  0  0  0  0  0  0  0  0  0
  -24.3806   -1.9461  -12.7981 C   0  0  0  0  0  0  0  0  0  0  0  0
  -24.6272   -1.3804  -13.9995 N   0  0  0  0  0  0  0  0  0  0  0  0
  -23.8606   -0.3126  -14.3329 C   0  0  0  0  0  0  0  0  0  0  0  0
 18 19  2  0  0  0
 19 16  1  0  0  0
 19 20  1  0  0  0
 16 17  2  0  0  0
 17 11  1  0  0  0
 11 12  2  0  0  0
 11 15  1  0  0  0
 12 13  1  0  0  0
 13 14  2  0  0  0
 14  7  1  0  0  0
 14 15  1  0  0  0
  7  8  2  0  0  0
  7  9  1  0  0  0
  9  1  1  0  0  0
  9 10  1  0  0  0
  1  2  1  0  0  0
  1  6  2  0  0  0
  2  3  2  0  0  0
  3  4  1  0  0  0
  4  5  2  0  0  0
  5 24  1  0  0  0
  5  6  1  0  0  0
 24 26  1  0  0  0
 24 25  1  0  0  0
 26 27  2  0  0  0
 26 30  1  0  0  0
 27 28  1  0  0  0
 28 29  2  0  0  0
 29 31  1  0  0  0
 29 30  1  0  0  0
 31 32  1  0  0  0
 31 36  2  0  0  0
 32 33  2  0  0  0
 33 34  1  0  0  0
 34 35  2  0  0  0
 35 36  1  0  0  0
 20 21  1  0  0  0
 20 22  1  0  0  0
 21 23  1  0  0  0
M  END
> <minimizedAffinity>
-11.39884

$$$$
