CHEMBL3977137


 38 41  0  0  0  0  0  0  0  0999 V2000
  -20.0483    1.6129  -14.0068 C   0  0  0  0  0  0  0  0  0  0  0  0
  -20.2809    2.9284  -14.4176 C   0  0  0  0  0  0  0  0  0  0  0  0
  -19.3951    3.5730  -15.2751 C   0  0  0  0  0  0  0  0  0  0  0  0
  -19.6609    4.8245  -15.6733 F   0  0  0  0  0  0  0  0  0  0  0  0
  -18.2485    2.9411  -15.7247 C   0  0  0  0  0  0  0  0  0  0  0  0
  -17.9799    1.6461  -15.2924 C   0  0  0  0  0  0  0  0  0  0  0  0
  -18.8584    0.9935  -14.4087 C   0  0  0  0  0  0  0  0  0  0  0  0
  -22.9717   -0.1685  -12.6971 N   0  0  0  0  0  0  0  0  0  0  0  0
  -22.2691    0.5859  -13.6228 C   0  0  0  0  0  0  0  0  0  0  0  0
  -22.7496    0.9590  -14.6863 O   0  0  0  0  0  0  0  0  0  0  0  0
  -20.9738    0.8670  -13.2250 N   0  0  0  0  0  0  0  0  0  0  0  0
  -22.6581   -0.1218  -11.7389 H   0  0  0  0  0  0  0  0  0  0  0  0
  -20.5872    0.2925  -12.4886 H   0  0  0  0  0  0  0  0  0  0  0  0
  -26.5193   -1.3276  -12.1582 C   0  0  0  0  0  0  0  0  0  0  0  0
  -25.2420   -0.7789  -11.9322 C   0  0  0  0  0  0  0  0  0  0  0  0
  -24.2693   -0.6900  -12.9370 C   0  0  0  0  0  0  0  0  0  0  0  0
  -24.6010   -1.1205  -14.2189 C   0  0  0  0  0  0  0  0  0  0  0  0
  -25.8670   -1.6624  -14.4691 C   0  0  0  0  0  0  0  0  0  0  0  0
  -26.8228   -1.7645  -13.4489 C   0  0  0  0  0  0  0  0  0  0  0  0
  -28.3683   -2.4016  -13.8750 Cl  0  0  0  0  0  0  0  0  0  0  0  0
  -26.7445   -1.5471   -9.6782 C   0  0  0  0  0  0  0  0  0  0  0  0
  -27.4860   -1.3629  -10.9942 C   0  0  0  0  0  0  0  0  0  0  0  0
  -28.3730   -2.4019  -11.0945 F   0  0  0  0  0  0  0  0  0  0  0  0
  -28.2750   -0.2568  -10.8920 F   0  0  0  0  0  0  0  0  0  0  0  0
  -16.7892    1.0982  -15.7200 O   0  0  0  0  0  0  0  0  0  0  0  0
  -15.9632    0.4978  -14.7763 C   0  0  0  0  0  0  0  0  0  0  0  0
  -16.3300   -0.7641  -14.3615 C   0  0  0  0  0  0  0  0  0  0  0  0
  -15.5053   -1.3465  -13.4242 C   0  0  0  0  0  0  0  0  0  0  0  0
  -14.4145   -0.7267  -12.9610 N   0  0  0  0  0  0  0  0  0  0  0  0
  -14.1616    0.5024  -13.4116 C   0  0  0  0  0  0  0  0  0  0  0  0
  -14.8965    1.1643  -14.3035 N   0  0  0  0  0  0  0  0  0  0  0  0
  -15.8395   -2.6226  -12.9442 N   0  0  0  0  0  0  0  0  0  0  0  0
  -15.9242   -2.9507  -11.6076 C   0  0  0  0  0  0  0  0  0  0  0  0
  -15.6791   -2.2240  -10.6530 O   0  0  0  0  0  0  0  0  0  0  0  0
  -16.0454   -3.3364  -13.6233 H   0  0  0  0  0  0  0  0  0  0  0  0
  -16.3522   -4.3446  -11.2924 C   0  0  0  0  0  0  0  0  0  0  0  0
  -15.4284   -5.4927  -11.6251 C   0  0  0  0  0  0  0  0  0  0  0  0
  -16.7804   -5.4051  -12.2734 C   0  0  0  0  0  0  0  0  0  0  0  0
 21 22  1  0  0  0
 22 23  1  0  0  0
 22 24  1  0  0  0
 22 14  1  0  0  0
 14 15  1  0  0  0
 14 19  2  0  0  0
 15 16  2  0  0  0
 16  8  1  0  0  0
 16 17  1  0  0  0
  8  9  1  0  0  0
  8 12  1  0  0  0
  9 10  2  0  0  0
  9 11  1  0  0  0
 11  1  1  0  0  0
 11 13  1  0  0  0
  1  2  1  0  0  0
  1  7  2  0  0  0
  2  3  2  0  0  0
  3  4  1  0  0  0
  3  5  1  0  0  0
  5  6  2  0  0  0
  6 25  1  0  0  0
  6  7  1  0  0  0
 25 26  1  0  0  0
 26 27  1  0  0  0
 26 31  2  0  0  0
 27 28  2  0  0  0
 28 32  1  0  0  0
 28 29  1  0  0  0
 32 33  1  0  0  0
 32 35  1  0  0  0
 33 34  2  0  0  0
 33 36  1  0  0  0
 36 37  1  0  0  0
 36 38  1  0  0  0
 37 38  1  0  0  0
 29 30  2  0  0  0
 30 31  1  0  0  0
 17 18  2  0  0  0
 18 19  1  0  0  0
 19 20  1  0  0  0
M  END
> <minimizedAffinity>
-9.82058

$$$$
