CHEMBL302481


 31 34  0  0  0  0  0  0  0  0999 V2000
  -14.1300   -3.6654  -12.2603 N   0  0  0  0  0  0  0  0  0  0  0  0
  -15.0730   -2.8004  -12.7603 C   0  0  0  0  0  0  0  0  0  0  0  0
  -14.4613   -1.6214  -13.1472 C   0  0  0  0  0  0  0  0  0  0  0  0
  -13.0642   -1.7685  -12.8650 C   0  0  0  0  0  0  0  0  0  0  0  0
  -11.8981   -0.9782  -12.9717 C   0  0  0  0  0  0  0  0  0  0  0  0
  -11.8562    0.3356  -13.4199 N   0  0  0  0  0  0  0  0  0  0  0  0
  -10.7145   -1.5069  -12.6008 N   0  0  0  0  0  0  0  0  0  0  0  0
  -10.6967   -2.7633  -12.1271 C   0  0  0  0  0  0  0  0  0  0  0  0
  -11.7301   -3.5947  -11.9534 N   0  0  0  0  0  0  0  0  0  0  0  0
  -12.8941   -3.0493  -12.3370 C   0  0  0  0  0  0  0  0  0  0  0  0
  -12.6750    0.8781  -13.1845 H   0  0  0  0  0  0  0  0  0  0  0  0
  -10.9668    0.7609  -13.1883 H   0  0  0  0  0  0  0  0  0  0  0  0
  -15.2255   -0.5090  -13.6981 C   0  0  0  0  0  0  0  0  0  0  0  0
  -15.0492   -0.1140  -15.0310 C   0  0  0  0  0  0  0  0  0  0  0  0
  -15.8096    0.9215  -15.5696 C   0  0  0  0  0  0  0  0  0  0  0  0
  -16.8358    1.4991  -14.8192 C   0  0  0  0  0  0  0  0  0  0  0  0
  -16.9874    1.1488  -13.4812 C   0  0  0  0  0  0  0  0  0  0  0  0
  -16.1534    0.1854  -12.9154 C   0  0  0  0  0  0  0  0  0  0  0  0
  -17.7137    2.4451  -15.2949 O   0  0  0  0  0  0  0  0  0  0  0  0
  -19.0437    2.3520  -14.9722 C   0  0  0  0  0  0  0  0  0  0  0  0
  -19.8276    3.4308  -14.5351 C   0  0  0  0  0  0  0  0  0  0  0  0
  -21.1453    3.2214  -14.1417 C   0  0  0  0  0  0  0  0  0  0  0  0
  -21.6975    1.9528  -14.2675 C   0  0  0  0  0  0  0  0  0  0  0  0
  -22.9852    1.7039  -13.8906 O   0  0  0  0  0  0  0  0  0  0  0  0
  -20.9594    0.8927  -14.7858 C   0  0  0  0  0  0  0  0  0  0  0  0
  -19.6254    1.0941  -15.1375 C   0  0  0  0  0  0  0  0  0  0  0  0
  -23.3644    2.5258  -13.5371 H   0  0  0  0  0  0  0  0  0  0  0  0
  -13.9674   -5.1474  -10.2313 C   0  0  0  0  0  0  0  0  0  0  0  0
  -14.3962   -5.0171  -11.7175 C   0  0  0  0  0  0  0  0  0  0  0  0
  -13.6099   -6.0813  -12.5124 C   0  0  0  0  0  0  0  0  0  0  0  0
  -15.9031   -5.3385  -11.7721 C   0  0  0  0  0  0  0  0  0  0  0  0
 28 29  1  0  0  0
 29 30  1  0  0  0
 29 31  1  0  0  0
 29  1  1  0  0  0
  1  2  1  0  0  0
  1 10  1  0  0  0
  2  3  2  0  0  0
  3 13  1  0  0  0
  3  4  1  0  0  0
 13 14  1  0  0  0
 13 18  2  0  0  0
 14 15  2  0  0  0
 15 16  1  0  0  0
 16 19  1  0  0  0
 16 17  2  0  0  0
 19 20  1  0  0  0
 20 21  1  0  0  0
 20 26  2  0  0  0
 21 22  2  0  0  0
 22 23  1  0  0  0
 23 24  1  0  0  0
 23 25  2  0  0  0
 24 27  1  0  0  0
 25 26  1  0  0  0
 17 18  1  0  0  0
  4  5  1  0  0  0
  4 10  2  0  0  0
  5  6  1  0  0  0
  5  7  2  0  0  0
  6 11  1  0  0  0
  6 12  1  0  0  0
  7  8  1  0  0  0
  8  9  2  0  0  0
  9 10  1  0  0  0
M  END
> <minimizedAffinity>
-7.97336

$$$$
