CHEMBL4539297


 28 30  0  0  0  0  0  0  0  0999 V2000
  -28.4533   -8.4724   -4.3314 C   0  0  0  0  0  0  0  0  0  0  0  0
  -27.1466   -8.7173   -4.7018 C   0  0  0  0  0  0  0  0  0  0  0  0
  -26.9221   -9.8371   -5.4705 C   0  0  0  0  0  0  0  0  0  0  0  0
  -27.8941  -10.6735   -5.8668 N   0  0  0  0  0  0  0  0  0  0  0  0
  -29.1349  -10.3404   -5.4965 C   0  0  0  0  0  0  0  0  0  0  0  0
  -29.4474   -9.2755   -4.7432 N   0  0  0  0  0  0  0  0  0  0  0  0
  -28.7189   -7.4271   -3.4230 N   0  0  0  0  0  0  0  0  0  0  0  0
  -28.1292   -7.4392   -2.6003 H   0  0  0  0  0  0  0  0  0  0  0  0
  -29.3146   -3.8255   -4.1732 C   0  0  0  0  0  0  0  0  0  0  0  0
  -30.7038   -3.7368   -4.0338 C   0  0  0  0  0  0  0  0  0  0  0  0
  -31.4375   -4.8726   -3.7107 C   0  0  0  0  0  0  0  0  0  0  0  0
  -30.7866   -6.0910   -3.5176 C   0  0  0  0  0  0  0  0  0  0  0  0
  -29.3962   -6.2125   -3.6479 C   0  0  0  0  0  0  0  0  0  0  0  0
  -28.6701   -5.0556   -3.9828 C   0  0  0  0  0  0  0  0  0  0  0  0
  -29.1722   -1.2907   -4.6673 C   0  0  0  0  0  0  0  0  0  0  0  0
  -28.4885   -2.6243   -4.5033 C   0  0  0  0  0  0  0  0  0  0  0  0
  -27.2706   -2.7336   -4.6264 O   0  0  0  0  0  0  0  0  0  0  0  0
  -30.4594  -11.4307   -5.9545 S   0  0  0  0  0  0  0  0  0  0  0  0
  -30.5057  -11.0814   -7.7443 C   0  0  0  0  0  0  0  0  0  0  0  0
  -31.2605   -9.7959   -8.0397 C   0  0  0  0  0  0  0  0  0  0  0  0
  -32.4457   -9.7873   -8.3767 O   0  0  0  0  0  0  0  0  0  0  0  0
  -30.5743   -8.4743   -7.8665 C   0  0  0  0  0  0  0  0  0  0  0  0
  -31.1703   -7.3702   -7.2514 C   0  0  0  0  0  0  0  0  0  0  0  0
  -30.4691   -6.1619   -7.1376 C   0  0  0  0  0  0  0  0  0  0  0  0
  -29.1752   -6.0544   -7.6426 C   0  0  0  0  0  0  0  0  0  0  0  0
  -28.3209   -4.5668   -7.5052 Cl  0  0  0  0  0  0  0  0  0  0  0  0
  -28.5714   -7.1421   -8.2666 C   0  0  0  0  0  0  0  0  0  0  0  0
  -29.2691   -8.3475   -8.3762 C   0  0  0  0  0  0  0  0  0  0  0  0
 15 16  1  0  0  0
 16 17  2  0  0  0
 16  9  1  0  0  0
  9 10  1  0  0  0
  9 14  2  0  0  0
 10 11  2  0  0  0
 11 12  1  0  0  0
 12 13  2  0  0  0
 13  7  1  0  0  0
 13 14  1  0  0  0
  7  1  1  0  0  0
  7  8  1  0  0  0
  1  2  1  0  0  0
  1  6  2  0  0  0
  2  3  2  0  0  0
  3  4  1  0  0  0
  4  5  2  0  0  0
  5 18  1  0  0  0
  5  6  1  0  0  0
 18 19  1  0  0  0
 19 20  1  0  0  0
 20 21  2  0  0  0
 20 22  1  0  0  0
 22 23  1  0  0  0
 22 28  2  0  0  0
 23 24  2  0  0  0
 24 25  1  0  0  0
 25 26  1  0  0  0
 25 27  2  0  0  0
 27 28  1  0  0  0
M  END
> <minimizedAffinity>
-7.55465

$$$$
