CHEMBL4561629


 28 30  0  0  0  0  0  0  0  0999 V2000
  -26.9224   -1.4464  -10.0398 C   0  0  0  0  0  0  0  0  0  0  0  0
  -27.9146   -1.4755  -10.9995 C   0  0  0  0  0  0  0  0  0  0  0  0
  -27.5003   -1.6072  -12.3051 C   0  0  0  0  0  0  0  0  0  0  0  0
  -26.2137   -1.7331  -12.6652 N   0  0  0  0  0  0  0  0  0  0  0  0
  -25.3223   -1.7491  -11.6650 C   0  0  0  0  0  0  0  0  0  0  0  0
  -25.6263   -1.5874  -10.3688 N   0  0  0  0  0  0  0  0  0  0  0  0
  -27.2762   -1.3737   -8.6685 N   0  0  0  0  0  0  0  0  0  0  0  0
  -26.4732   -1.1229   -8.1000 H   0  0  0  0  0  0  0  0  0  0  0  0
  -29.4189   -4.3813   -6.5887 C   0  0  0  0  0  0  0  0  0  0  0  0
  -28.7098   -4.7036   -7.7482 C   0  0  0  0  0  0  0  0  0  0  0  0
  -28.0061   -3.7123   -8.4357 C   0  0  0  0  0  0  0  0  0  0  0  0
  -28.0129   -2.3817   -7.9976 C   0  0  0  0  0  0  0  0  0  0  0  0
  -28.6678   -2.0767   -6.8007 C   0  0  0  0  0  0  0  0  0  0  0  0
  -29.3807   -3.0648   -6.1094 C   0  0  0  0  0  0  0  0  0  0  0  0
  -30.6218   -5.1224   -4.4248 C   0  0  0  0  0  0  0  0  0  0  0  0
  -30.2224   -5.4010   -5.8523 C   0  0  0  0  0  0  0  0  0  0  0  0
  -30.5437   -6.4464   -6.4131 O   0  0  0  0  0  0  0  0  0  0  0  0
  -23.6105   -1.9563  -12.0850 S   0  0  0  0  0  0  0  0  0  0  0  0
  -23.5586   -0.9713  -13.6222 C   0  0  0  0  0  0  0  0  0  0  0  0
  -23.3029    0.5028  -13.3467 C   0  0  0  0  0  0  0  0  0  0  0  0
  -23.9795    1.1540  -12.5462 O   0  0  0  0  0  0  0  0  0  0  0  0
  -22.1258    1.1832  -13.9695 C   0  0  0  0  0  0  0  0  0  0  0  0
  -21.9703    2.5720  -14.0056 C   0  0  0  0  0  0  0  0  0  0  0  0
  -20.8097    3.1362  -14.5556 C   0  0  0  0  0  0  0  0  0  0  0  0
  -19.8084    2.3140  -15.0700 C   0  0  0  0  0  0  0  0  0  0  0  0
  -18.2254    3.0804  -15.7603 Br  0  0  0  0  0  0  0  0  0  0  0  0
  -19.9590    0.9312  -15.0573 C   0  0  0  0  0  0  0  0  0  0  0  0
  -21.1136    0.3694  -14.5066 C   0  0  0  0  0  0  0  0  0  0  0  0
 15 16  1  0  0  0
 16 17  2  0  0  0
 16  9  1  0  0  0
  9 10  1  0  0  0
  9 14  2  0  0  0
 10 11  2  0  0  0
 11 12  1  0  0  0
 12  7  1  0  0  0
 12 13  2  0  0  0
  7  1  1  0  0  0
  7  8  1  0  0  0
  1  2  1  0  0  0
  1  6  2  0  0  0
  2  3  2  0  0  0
  3  4  1  0  0  0
  4  5  2  0  0  0
  5 18  1  0  0  0
  5  6  1  0  0  0
 18 19  1  0  0  0
 19 20  1  0  0  0
 20 21  2  0  0  0
 20 22  1  0  0  0
 22 23  1  0  0  0
 22 28  2  0  0  0
 23 24  2  0  0  0
 24 25  1  0  0  0
 25 26  1  0  0  0
 25 27  2  0  0  0
 27 28  1  0  0  0
 13 14  1  0  0  0
M  END
> <minimizedAffinity>
-9.35175

$$$$
