CHEMBL1978099


 37 39  0  0  0  0  0  0  0  0999 V2000
  -25.7871   -1.8635  -11.1837 C   0  0  0  0  0  0  0  0  0  0  0  0
  -26.0737   -1.8437   -9.8727 N   0  0  0  0  0  0  0  0  0  0  0  0
  -27.3106   -1.5602   -9.4581 C   0  0  0  0  0  0  0  0  0  0  0  0
  -28.3314   -1.3439  -10.3001 N   0  0  0  0  0  0  0  0  0  0  0  0
  -28.0464   -1.4796  -11.6196 C   0  0  0  0  0  0  0  0  0  0  0  0
  -26.7975   -1.7440  -12.1148 C   0  0  0  0  0  0  0  0  0  0  0  0
  -26.5668   -1.7804  -13.4370 F   0  0  0  0  0  0  0  0  0  0  0  0
  -24.4335   -1.9638  -11.5993 N   0  0  0  0  0  0  0  0  0  0  0  0
  -23.8801   -2.2438  -10.7897 H   0  0  0  0  0  0  0  0  0  0  0  0
  -22.4328    1.0736  -13.7818 C   0  0  0  0  0  0  0  0  0  0  0  0
  -22.1099   -0.2564  -14.0166 C   0  0  0  0  0  0  0  0  0  0  0  0
  -22.7813   -1.2584  -13.3165 C   0  0  0  0  0  0  0  0  0  0  0  0
  -23.7476   -0.9692  -12.3391 C   0  0  0  0  0  0  0  0  0  0  0  0
  -24.0605    0.3708  -12.1104 C   0  0  0  0  0  0  0  0  0  0  0  0
  -23.3946    1.3747  -12.8164 C   0  0  0  0  0  0  0  0  0  0  0  0
  -21.8006    2.0604  -14.4759 O   0  0  0  0  0  0  0  0  0  0  0  0
  -20.5998    1.6527  -15.1618 C   0  0  0  0  0  0  0  0  0  0  0  0
  -17.3410    3.4657  -15.8050 C   0  0  0  0  0  0  0  0  0  0  0  0
  -18.3635    2.4727  -15.6589 N   0  0  0  0  0  0  0  0  0  0  0  0
  -19.6451    2.8221  -15.2793 C   0  0  0  0  0  0  0  0  0  0  0  0
  -19.9877    3.9878  -15.0759 O   0  0  0  0  0  0  0  0  0  0  0  0
  -18.1659    1.4849  -15.8075 H   0  0  0  0  0  0  0  0  0  0  0  0
  -27.5426   -1.3927   -8.0958 N   0  0  0  0  0  0  0  0  0  0  0  0
  -27.0983   -0.5669   -7.7285 H   0  0  0  0  0  0  0  0  0  0  0  0
  -28.3355   -2.1758   -7.2455 C   0  0  0  0  0  0  0  0  0  0  0  0
  -29.0187   -1.5848   -6.1836 C   0  0  0  0  0  0  0  0  0  0  0  0
  -29.6949   -2.3684   -5.2387 C   0  0  0  0  0  0  0  0  0  0  0  0
  -29.7207   -3.7621   -5.3457 C   0  0  0  0  0  0  0  0  0  0  0  0
  -30.3772   -4.5434   -4.2287 C   0  0  0  0  0  0  0  0  0  0  0  0
  -29.0965   -4.3595   -6.4494 C   0  0  0  0  0  0  0  0  0  0  0  0
  -28.3823   -3.5690   -7.3681 C   0  0  0  0  0  0  0  0  0  0  0  0
  -29.1611   -6.1102   -6.7834 S   0  0  0  0  0  0  0  0  0  0  0  0
  -28.1426   -6.2212   -8.0903 N   0  0  0  0  0  0  0  0  0  0  0  0
  -28.5435   -6.8232   -5.6917 O   0  0  0  0  0  0  0  0  0  0  0  0
  -30.4886   -6.4533   -7.2571 O   0  0  0  0  0  0  0  0  0  0  0  0
  -27.1557   -6.2723   -7.8638 H   0  0  0  0  0  0  0  0  0  0  0  0
  -28.4496   -5.7335   -8.9269 H   0  0  0  0  0  0  0  0  0  0  0  0
 18 19  1  0  0  0
 19 20  1  0  0  0
 19 22  1  0  0  0
 20 21  2  0  0  0
 20 17  1  0  0  0
 17 16  1  0  0  0
 16 10  1  0  0  0
 10 11  1  0  0  0
 10 15  2  0  0  0
 11 12  2  0  0  0
 12 13  1  0  0  0
 13  8  1  0  0  0
 13 14  2  0  0  0
  8  1  1  0  0  0
  8  9  1  0  0  0
  1  2  1  0  0  0
  1  6  2  0  0  0
  2  3  2  0  0  0
  3 23  1  0  0  0
  3  4  1  0  0  0
 23 25  1  0  0  0
 23 24  1  0  0  0
 25 26  1  0  0  0
 25 31  2  0  0  0
 26 27  2  0  0  0
 27 28  1  0  0  0
 28 29  1  0  0  0
 28 30  2  0  0  0
 30 32  1  0  0  0
 30 31  1  0  0  0
 32 33  1  0  0  0
 32 34  2  0  0  0
 32 35  2  0  0  0
 33 36  1  0  0  0
 33 37  1  0  0  0
  4  5  2  0  0  0
  5  6  1  0  0  0
  6  7  1  0  0  0
 14 15  1  0  0  0
M  END
> <minimizedAffinity>
-9.93254

$$$$
