CHEMBL4166405


 35 38  0  0  0  0  0  0  0  0999 V2000
  -28.4783   -3.7185   -4.5048 C   0  0  0  0  0  0  0  0  0  0  0  0
  -27.9672   -5.0014   -4.3037 C   0  0  0  0  0  0  0  0  0  0  0  0
  -28.8417   -6.0502   -4.5763 C   0  0  0  0  0  0  0  0  0  0  0  0
  -28.4359   -7.2047   -5.2445 C   0  0  0  0  0  0  0  0  0  0  0  0
  -29.1495   -7.4064   -6.4299 C   0  0  0  0  0  0  0  0  0  0  0  0
  -30.4062   -6.8340   -6.5532 C   0  0  0  0  0  0  0  0  0  0  0  0
  -31.0068   -6.1389   -5.5577 N   0  0  0  0  0  0  0  0  0  0  0  0
  -30.1943   -5.6924   -4.5954 C   0  0  0  0  0  0  0  0  0  0  0  0
  -30.5663   -4.6234   -3.8121 C   0  0  0  0  0  0  0  0  0  0  0  0
  -29.6789   -3.5616   -3.8252 C   0  0  0  0  0  0  0  0  0  0  0  0
  -30.1131   -2.3477   -3.4618 F   0  0  0  0  0  0  0  0  0  0  0  0
  -28.0042   -2.0695   -8.4909 C   0  0  0  0  0  0  0  0  0  0  0  0
  -27.8008   -1.2334   -7.4005 C   0  0  0  0  0  0  0  0  0  0  0  0
  -27.9880   -1.7420   -6.1053 C   0  0  0  0  0  0  0  0  0  0  0  0
  -28.3568   -3.0819   -5.8892 C   0  0  0  0  0  0  0  0  0  0  0  0
  -28.6771   -3.7727   -7.0687 C   0  0  0  0  0  0  0  0  0  0  0  0
  -28.5132   -3.3142   -8.3427 N   0  0  0  0  0  0  0  0  0  0  0  0
  -27.4688   -1.6842   -9.8558 C   0  0  0  0  0  0  0  0  0  0  0  0
  -25.4948   -1.5444  -11.1839 C   0  0  0  0  0  0  0  0  0  0  0  0
  -26.0324   -1.6115   -9.8647 O   0  0  0  0  0  0  0  0  0  0  0  0
  -28.6171   -8.2232   -7.5287 C   0  0  0  0  0  0  0  0  0  0  0  0
  -28.1590   -7.5761   -8.6369 N   0  0  0  0  0  0  0  0  0  0  0  0
  -28.4808   -9.4293   -7.4064 O   0  0  0  0  0  0  0  0  0  0  0  0
  -27.9322   -6.5753   -8.6399 H   0  0  0  0  0  0  0  0  0  0  0  0
  -27.6729   -8.1297   -9.3215 H   0  0  0  0  0  0  0  0  0  0  0  0
  -27.2940   -7.9619   -4.9239 N   0  0  0  0  0  0  0  0  0  0  0  0
  -27.0095   -8.4742   -5.7684 H   0  0  0  0  0  0  0  0  0  0  0  0
  -27.3924   -8.9646   -3.8090 C   0  0  0  0  0  0  0  0  0  0  0  0
  -28.7079   -9.7779   -3.8792 C   0  0  0  0  0  0  0  0  0  0  0  0
  -26.2429   -9.9696   -3.7560 C   0  0  0  0  0  0  0  0  0  0  0  0
  -26.1984  -11.2037   -3.0630 C   0  0  0  0  0  0  0  0  0  0  0  0
  -24.9183  -11.6792   -3.1843 C   0  0  0  0  0  0  0  0  0  0  0  0
  -24.2826  -10.7717   -3.9697 N   0  0  0  0  0  0  0  0  0  0  0  0
  -22.9006  -10.8111   -4.3797 C   0  0  0  0  0  0  0  0  0  0  0  0
  -25.0715   -9.7428   -4.3497 N   0  0  0  0  0  0  0  0  0  0  0  0
 19 20  1  0  0  0
 20 18  1  0  0  0
 18 12  1  0  0  0
 12 13  1  0  0  0
 12 17  2  0  0  0
 13 14  2  0  0  0
 14 15  1  0  0  0
 15  1  1  0  0  0
 15 16  2  0  0  0
  1  2  1  0  0  0
  1 10  2  0  0  0
  2  3  2  0  0  0
  3  4  1  0  0  0
  3  8  1  0  0  0
  4 26  1  0  0  0
  4  5  2  0  0  0
 26 28  1  0  0  0
 26 27  1  0  0  0
 28 29  1  0  0  0
 28 30  1  0  0  0
 30 31  1  0  0  0
 30 35  2  0  0  0
 31 32  2  0  0  0
 32 33  1  0  0  0
 33 34  1  0  0  0
 33 35  1  0  0  0
  5 21  1  0  0  0
  5  6  1  0  0  0
 21 22  1  0  0  0
 21 23  2  0  0  0
 22 24  1  0  0  0
 22 25  1  0  0  0
  6  7  2  0  0  0
  7  8  1  0  0  0
  8  9  2  0  0  0
  9 10  1  0  0  0
 10 11  1  0  0  0
 16 17  1  0  0  0
M  END
> <minimizedAffinity>
-8.83401

$$$$
