CHEMBL1940850


 21 23  0  0  0  0  0  0  0  0999 V2000
  -21.4964    0.2835  -15.0264 C   0  0  0  0  0  0  0  0  0  0  0  0
  -22.4854   -0.0791  -13.9600 C   0  0  0  0  0  0  0  0  0  0  0  0
  -22.1710    0.0347  -12.6060 C   0  0  0  0  0  0  0  0  0  0  0  0
  -23.1175   -0.3069  -11.6375 C   0  0  0  0  0  0  0  0  0  0  0  0
  -24.3890   -0.7754  -12.0157 C   0  0  0  0  0  0  0  0  0  0  0  0
  -25.3654   -1.1457  -11.0718 C   0  0  0  0  0  0  0  0  0  0  0  0
  -26.6147   -1.6326  -11.4801 C   0  0  0  0  0  0  0  0  0  0  0  0
  -26.7969   -1.7392  -12.8621 C   0  0  0  0  0  0  0  0  0  0  0  0
  -28.1848   -2.4462  -13.6049 Cl  0  0  0  0  0  0  0  0  0  0  0  0
  -25.8927   -1.3650  -13.7967 N   0  0  0  0  0  0  0  0  0  0  0  0
  -24.7120   -0.8951  -13.3797 C   0  0  0  0  0  0  0  0  0  0  0  0
  -23.7614   -0.5331  -14.3237 C   0  0  0  0  0  0  0  0  0  0  0  0
  -27.5593   -2.0386  -10.4183 C   0  0  0  0  0  0  0  0  0  0  0  0
  -27.2550   -2.1650   -9.1191 C   0  0  0  0  0  0  0  0  0  0  0  0
  -28.2788   -2.5994   -8.1291 C   0  0  0  0  0  0  0  0  0  0  0  0
  -29.0869   -3.4918   -8.3635 O   0  0  0  0  0  0  0  0  0  0  0  0
  -28.1735   -1.9076   -6.8447 C   0  0  0  0  0  0  0  0  0  0  0  0
  -28.1914   -2.4903   -5.5272 C   0  0  0  0  0  0  0  0  0  0  0  0
  -28.0884   -1.5506   -4.5249 C   0  0  0  0  0  0  0  0  0  0  0  0
  -27.9473    0.0330   -5.1478 S   0  0  0  0  0  0  0  0  0  0  0  0
  -28.0045   -0.5366   -6.7588 C   0  0  0  0  0  0  0  0  0  0  0  0
  1  2  1  0  0  0
  2  3  1  0  0  0
  2 12  2  0  0  0
  3  4  2  0  0  0
  4  5  1  0  0  0
  5  6  1  0  0  0
  5 11  2  0  0  0
  6  7  2  0  0  0
  7 13  1  0  0  0
  7  8  1  0  0  0
 13 14  2  0  0  0
 14 15  1  0  0  0
 15 16  2  0  0  0
 15 17  1  0  0  0
 17 18  1  0  0  0
 17 21  2  0  0  0
 18 19  2  0  0  0
 19 20  1  0  0  0
 20 21  1  0  0  0
  8  9  1  0  0  0
  8 10  2  0  0  0
 10 11  1  0  0  0
 11 12  1  0  0  0
M  END
> <minimizedAffinity>
-9.05309

$$$$
