CHEMBL514016


 29 33  0  0  0  0  0  0  0  0999 V2000
  -26.5265   -1.9072  -11.1023 C   0  0  0  0  0  0  0  0  0  0  0  0
  -25.4178   -1.3399  -10.4872 C   0  0  0  0  0  0  0  0  0  0  0  0
  -24.3889   -0.7771  -11.2466 C   0  0  0  0  0  0  0  0  0  0  0  0
  -24.4440   -0.6943  -12.6565 C   0  0  0  0  0  0  0  0  0  0  0  0
  -25.5506   -1.2849  -13.2755 C   0  0  0  0  0  0  0  0  0  0  0  0
  -25.7832   -1.2834  -14.9908 Cl  0  0  0  0  0  0  0  0  0  0  0  0
  -26.5736   -1.8826  -12.5040 C   0  0  0  0  0  0  0  0  0  0  0  0
  -23.3660    0.0413  -13.3740 C   0  0  0  0  0  0  0  0  0  0  0  0
  -22.3007   -0.4496  -13.9812 N   0  0  0  0  0  0  0  0  0  0  0  0
  -21.4652    0.5784  -14.4296 C   0  0  0  0  0  0  0  0  0  0  0  0
  -20.2257    0.4496  -15.0977 C   0  0  0  0  0  0  0  0  0  0  0  0
  -19.4738    1.5951  -15.4122 C   0  0  0  0  0  0  0  0  0  0  0  0
  -19.9368    2.8623  -15.0748 C   0  0  0  0  0  0  0  0  0  0  0  0
  -21.1726    3.0184  -14.4498 C   0  0  0  0  0  0  0  0  0  0  0  0
  -21.9183    1.8672  -14.1533 C   0  0  0  0  0  0  0  0  0  0  0  0
  -23.4681    1.7742  -13.4428 S   0  0  0  0  0  0  0  0  0  0  0  0
  -27.6005   -2.3869  -10.3141 N   0  0  0  0  0  0  0  0  0  0  0  0
  -28.4981   -2.3201  -10.7873 H   0  0  0  0  0  0  0  0  0  0  0  0
  -29.1186   -6.2401   -4.8891 Cl  0  0  0  0  0  0  0  0  0  0  0  0
  -28.7710   -5.0780   -6.1086 C   0  0  0  0  0  0  0  0  0  0  0  0
  -28.5882   -5.4855   -7.4231 C   0  0  0  0  0  0  0  0  0  0  0  0
  -28.2846   -4.5308   -8.3960 C   0  0  0  0  0  0  0  0  0  0  0  0
  -28.1560   -3.1583   -8.0528 C   0  0  0  0  0  0  0  0  0  0  0  0
  -27.8023   -2.1145   -8.9347 C   0  0  0  0  0  0  0  0  0  0  0  0
  -27.6744   -0.8408   -8.5225 N   0  0  0  0  0  0  0  0  0  0  0  0
  -27.9037   -0.5987   -7.2315 C   0  0  0  0  0  0  0  0  0  0  0  0
  -28.2407   -1.5043   -6.3086 N   0  0  0  0  0  0  0  0  0  0  0  0
  -28.3517   -2.7695   -6.7179 C   0  0  0  0  0  0  0  0  0  0  0  0
  -28.6615   -3.7323   -5.7685 C   0  0  0  0  0  0  0  0  0  0  0  0
 19 20  1  0  0  0
 20 21  1  0  0  0
 20 29  2  0  0  0
 21 22  2  0  0  0
 22 23  1  0  0  0
 23 24  1  0  0  0
 23 28  2  0  0  0
 24 17  1  0  0  0
 24 25  2  0  0  0
 17  1  1  0  0  0
 17 18  1  0  0  0
  1  2  1  0  0  0
  1  7  2  0  0  0
  2  3  2  0  0  0
  3  4  1  0  0  0
  4  8  1  0  0  0
  4  5  2  0  0  0
  8  9  2  0  0  0
  8 16  1  0  0  0
  9 10  1  0  0  0
 10 11  1  0  0  0
 10 15  2  0  0  0
 11 12  2  0  0  0
 12 13  1  0  0  0
 13 14  2  0  0  0
 14 15  1  0  0  0
 15 16  1  0  0  0
  5  6  1  0  0  0
  5  7  1  0  0  0
 25 26  1  0  0  0
 26 27  2  0  0  0
 27 28  1  0  0  0
 28 29  1  0  0  0
M  END
> <minimizedAffinity>
-10.33986

$$$$
