CHEMBL3287592


 43 47  0  0  0  0  0  0  0  0999 V2000
  -28.6040   -2.2852   -7.2028 C   0  0  0  0  0  0  0  0  0  0  0  0
  -28.4184   -3.3896   -8.0348 C   0  0  0  0  0  0  0  0  0  0  0  0
  -27.6341   -3.2859   -9.1857 C   0  0  0  0  0  0  0  0  0  0  0  0
  -26.9735   -2.0976   -9.5000 C   0  0  0  0  0  0  0  0  0  0  0  0
  -27.1429   -0.9934   -8.6544 C   0  0  0  0  0  0  0  0  0  0  0  0
  -27.9522   -1.0956   -7.5175 C   0  0  0  0  0  0  0  0  0  0  0  0
  -28.0914   -0.0228   -6.7230 F   0  0  0  0  0  0  0  0  0  0  0  0
  -26.1261   -1.9656  -10.6225 N   0  0  0  0  0  0  0  0  0  0  0  0
  -26.3298   -1.1477  -11.7225 C   0  0  0  0  0  0  0  0  0  0  0  0
  -27.2629   -0.3854  -11.9315 O   0  0  0  0  0  0  0  0  0  0  0  0
  -25.3141   -2.5735  -10.6587 H   0  0  0  0  0  0  0  0  0  0  0  0
  -25.2528   -1.2363  -12.7602 C   0  0  0  0  0  0  0  0  0  0  0  0
  -25.6754   -1.7544  -14.1389 C   0  0  0  0  0  0  0  0  0  0  0  0
  -24.8305   -2.6181  -13.2584 C   0  0  0  0  0  0  0  0  0  0  0  0
  -24.2490   -0.1290  -12.7215 C   0  0  0  0  0  0  0  0  0  0  0  0
  -24.2397    0.5764  -11.7194 O   0  0  0  0  0  0  0  0  0  0  0  0
  -23.4416   -0.0107  -13.8423 N   0  0  0  0  0  0  0  0  0  0  0  0
  -23.6471   -0.6149  -14.6292 H   0  0  0  0  0  0  0  0  0  0  0  0
  -22.4524    0.9815  -14.0319 C   0  0  0  0  0  0  0  0  0  0  0  0
  -22.7089    2.3436  -13.8396 C   0  0  0  0  0  0  0  0  0  0  0  0
  -21.7417    3.3044  -14.1380 C   0  0  0  0  0  0  0  0  0  0  0  0
  -20.5051    2.9020  -14.6162 C   0  0  0  0  0  0  0  0  0  0  0  0
  -19.5922    3.8255  -14.9432 F   0  0  0  0  0  0  0  0  0  0  0  0
  -20.2051    1.5524  -14.7603 C   0  0  0  0  0  0  0  0  0  0  0  0
  -21.1741    0.5880  -14.4533 C   0  0  0  0  0  0  0  0  0  0  0  0
  -29.3460   -2.3333   -6.0432 O   0  0  0  0  0  0  0  0  0  0  0  0
  -30.2297   -5.5437   -4.7999 C   0  0  0  0  0  0  0  0  0  0  0  0
  -29.2288   -5.8245   -3.9465 N   0  0  0  0  0  0  0  0  0  0  0  0
  -28.2583   -4.9061   -3.8063 C   0  0  0  0  0  0  0  0  0  0  0  0
  -28.2507   -3.7153   -4.4755 C   0  0  0  0  0  0  0  0  0  0  0  0
  -29.3183   -3.5187   -5.3181 C   0  0  0  0  0  0  0  0  0  0  0  0
  -30.3254   -4.3988   -5.4730 N   0  0  0  0  0  0  0  0  0  0  0  0
  -31.2398   -6.4788   -5.0330 N   0  0  0  0  0  0  0  0  0  0  0  0
  -31.3729   -6.9756   -4.1569 H   0  0  0  0  0  0  0  0  0  0  0  0
  -30.2463   -8.5087   -7.9946 C   0  0  0  0  0  0  0  0  0  0  0  0
  -31.4565   -9.1502   -8.2797 C   0  0  0  0  0  0  0  0  0  0  0  0
  -32.5827   -8.9050   -7.4925 C   0  0  0  0  0  0  0  0  0  0  0  0
  -32.5040   -8.0150   -6.4197 C   0  0  0  0  0  0  0  0  0  0  0  0
  -31.3122   -7.3380   -6.1455 C   0  0  0  0  0  0  0  0  0  0  0  0
  -30.1823   -7.6135   -6.9247 C   0  0  0  0  0  0  0  0  0  0  0  0
  -29.1082   -9.9310   -9.8240 C   0  0  0  0  0  0  0  0  0  0  0  0
  -29.0458   -8.7958   -8.8320 C   0  0  0  0  0  0  0  0  0  0  0  0
  -28.0365   -8.1054   -8.7130 O   0  0  0  0  0  0  0  0  0  0  0  0
 41 42  1  0  0  0
 42 43  2  0  0  0
 42 35  1  0  0  0
 35 36  1  0  0  0
 35 40  2  0  0  0
 36 37  2  0  0  0
 37 38  1  0  0  0
 38 39  2  0  0  0
 39 33  1  0  0  0
 39 40  1  0  0  0
 33 27  1  0  0  0
 33 34  1  0  0  0
 27 28  1  0  0  0
 27 32  2  0  0  0
 28 29  2  0  0  0
 29 30  1  0  0  0
 30 31  2  0  0  0
 31 26  1  0  0  0
 31 32  1  0  0  0
 26  1  1  0  0  0
  1  2  1  0  0  0
  1  6  2  0  0  0
  2  3  2  0  0  0
  3  4  1  0  0  0
  4  8  1  0  0  0
  4  5  2  0  0  0
  8  9  1  0  0  0
  8 11  1  0  0  0
  9 10  2  0  0  0
  9 12  1  0  0  0
 12 15  1  0  0  0
 12 13  1  0  0  0
 12 14  1  0  0  0
 15 16  2  0  0  0
 15 17  1  0  0  0
 17 19  1  0  0  0
 17 18  1  0  0  0
 19 20  1  0  0  0
 19 25  2  0  0  0
 20 21  2  0  0  0
 21 22  1  0  0  0
 22 23  1  0  0  0
 22 24  2  0  0  0
 24 25  1  0  0  0
 13 14  1  0  0  0
  5  6  1  0  0  0
  6  7  1  0  0  0
M  END
> <minimizedAffinity>
-10.55206

$$$$
