CHEMBL410130


 31 34  0  0  0  0  0  0  0  0999 V2000
  -21.4362    1.6045  -14.5697 C   0  0  0  0  0  0  0  0  0  0  0  0
  -21.3966    0.2103  -14.5022 C   0  0  0  0  0  0  0  0  0  0  0  0
  -22.4154   -0.5060  -13.8614 C   0  0  0  0  0  0  0  0  0  0  0  0
  -23.4938    0.1490  -13.2470 C   0  0  0  0  0  0  0  0  0  0  0  0
  -23.4457    1.5566  -13.2259 C   0  0  0  0  0  0  0  0  0  0  0  0
  -22.4405    2.2805  -13.8860 C   0  0  0  0  0  0  0  0  0  0  0  0
  -24.6077   -0.6082  -12.6321 C   0  0  0  0  0  0  0  0  0  0  0  0
  -24.6535   -0.8532  -11.2337 C   0  0  0  0  0  0  0  0  0  0  0  0
  -25.7279   -1.5002  -10.6138 C   0  0  0  0  0  0  0  0  0  0  0  0
  -26.8318   -1.9128  -11.3529 C   0  0  0  0  0  0  0  0  0  0  0  0
  -26.7618   -1.7057  -12.7269 C   0  0  0  0  0  0  0  0  0  0  0  0
  -27.7289   -2.0581  -13.6114 O   0  0  0  0  0  0  0  0  0  0  0  0
  -27.3052   -1.7804  -14.8933 N   0  0  0  0  0  0  0  0  0  0  0  0
  -26.0770   -1.2733  -14.7684 C   0  0  0  0  0  0  0  0  0  0  0  0
  -25.2967   -0.9927  -15.8329 N   0  0  0  0  0  0  0  0  0  0  0  0
  -25.6951   -1.1204  -13.3972 C   0  0  0  0  0  0  0  0  0  0  0  0
  -25.6116   -1.3633  -16.7238 H   0  0  0  0  0  0  0  0  0  0  0  0
  -24.2879   -1.0510  -15.7236 H   0  0  0  0  0  0  0  0  0  0  0  0
  -18.4046    3.0587  -15.9416 N   0  0  0  0  0  0  0  0  0  0  0  0
  -19.1528    2.2936  -15.0672 C   0  0  0  0  0  0  0  0  0  0  0  0
  -18.6944    1.6145  -14.1549 O   0  0  0  0  0  0  0  0  0  0  0  0
  -20.5142    2.3386  -15.3588 N   0  0  0  0  0  0  0  0  0  0  0  0
  -18.9008    3.7421  -16.4902 H   0  0  0  0  0  0  0  0  0  0  0  0
  -20.7325    2.4241  -16.3409 H   0  0  0  0  0  0  0  0  0  0  0  0
  -14.1201    0.5884  -16.3207 C   0  0  0  0  0  0  0  0  0  0  0  0
  -14.8755    1.8785  -16.1848 C   0  0  0  0  0  0  0  0  0  0  0  0
  -14.1733    3.0870  -16.1242 C   0  0  0  0  0  0  0  0  0  0  0  0
  -14.8584    4.2865  -15.9895 C   0  0  0  0  0  0  0  0  0  0  0  0
  -16.2534    4.2873  -15.9190 C   0  0  0  0  0  0  0  0  0  0  0  0
  -16.9836    3.0972  -15.9959 C   0  0  0  0  0  0  0  0  0  0  0  0
  -16.2815    1.8903  -16.1261 C   0  0  0  0  0  0  0  0  0  0  0  0
 25 26  1  0  0  0
 26 27  1  0  0  0
 26 31  2  0  0  0
 27 28  2  0  0  0
 28 29  1  0  0  0
 29 30  2  0  0  0
 30 19  1  0  0  0
 30 31  1  0  0  0
 19 20  1  0  0  0
 19 23  1  0  0  0
 20 21  2  0  0  0
 20 22  1  0  0  0
 22  1  1  0  0  0
 22 24  1  0  0  0
  1  2  1  0  0  0
  1  6  2  0  0  0
  2  3  2  0  0  0
  3  4  1  0  0  0
  4  7  1  0  0  0
  4  5  2  0  0  0
  7  8  1  0  0  0
  7 16  2  0  0  0
  8  9  2  0  0  0
  9 10  1  0  0  0
 10 11  2  0  0  0
 11 12  1  0  0  0
 11 16  1  0  0  0
 12 13  1  0  0  0
 13 14  2  0  0  0
 14 15  1  0  0  0
 14 16  1  0  0  0
 15 17  1  0  0  0
 15 18  1  0  0  0
  5  6  1  0  0  0
M  END
> <minimizedAffinity>
-9.97381

$$$$
