CHEMBL2430255


 37 40  0  0  0  0  0  0  0  0999 V2000
  -29.6015   -5.3203   -4.4725 C   0  0  0  0  0  0  0  0  0  0  0  0
  -29.9416   -6.5080   -3.8318 C   0  0  0  0  0  0  0  0  0  0  0  0
  -30.5199   -6.7642   -2.4856 C   0  0  0  0  0  0  0  0  0  0  0  0
  -29.7204   -7.5546   -4.7187 N   0  0  0  0  0  0  0  0  0  0  0  0
  -29.2568   -7.0674   -5.9119 C   0  0  0  0  0  0  0  0  0  0  0  0
  -29.1737   -5.6965   -5.7799 C   0  0  0  0  0  0  0  0  0  0  0  0
  -28.7194   -4.7502   -6.8356 C   0  0  0  0  0  0  0  0  0  0  0  0
  -28.2929   -5.3970   -8.1331 C   0  0  0  0  0  0  0  0  0  0  0  0
  -28.4309   -6.9104   -8.2531 C   0  0  0  0  0  0  0  0  0  0  0  0
  -28.9270   -7.7904   -7.1036 C   0  0  0  0  0  0  0  0  0  0  0  0
  -29.0194   -9.1285   -7.3212 C   0  0  0  0  0  0  0  0  0  0  0  0
  -29.4805  -10.2558   -6.4032 C   0  0  0  0  0  0  0  0  0  0  0  0
  -29.8723  -10.1719   -5.2529 O   0  0  0  0  0  0  0  0  0  0  0  0
  -29.3627  -11.4259   -7.1540 N   0  0  0  0  0  0  0  0  0  0  0  0
  -28.8769  -11.1809   -8.4356 C   0  0  0  0  0  0  0  0  0  0  0  0
  -28.6259  -12.0959   -9.4581 C   0  0  0  0  0  0  0  0  0  0  0  0
  -28.1274  -11.6213  -10.6942 C   0  0  0  0  0  0  0  0  0  0  0  0
  -27.9000  -10.2520  -10.8738 C   0  0  0  0  0  0  0  0  0  0  0  0
  -28.1680   -9.3803   -9.8164 C   0  0  0  0  0  0  0  0  0  0  0  0
  -28.6524   -9.8214   -8.5969 C   0  0  0  0  0  0  0  0  0  0  0  0
  -29.9084   -8.5353   -4.5234 H   0  0  0  0  0  0  0  0  0  0  0  0
  -29.6070  -12.3324   -6.7839 H   0  0  0  0  0  0  0  0  0  0  0  0
  -28.5481   -3.1901   -4.0794 N   0  0  0  0  0  0  0  0  0  0  0  0
  -29.6986   -3.9359   -4.0149 C   0  0  0  0  0  0  0  0  0  0  0  0
  -30.7650   -3.4416   -3.6546 O   0  0  0  0  0  0  0  0  0  0  0  0
  -27.8050   -3.5113   -4.6878 H   0  0  0  0  0  0  0  0  0  0  0  0
  -28.6164   -1.7817   -3.7611 C   0  0  0  0  0  0  0  0  0  0  0  0
  -27.6596   -0.9341   -4.6082 C   0  0  0  0  0  0  0  0  0  0  0  0
  -28.3212    0.0523   -5.4952 N   0  0  0  0  0  0  0  0  0  0  0  0
  -27.8596   -1.4468   -7.4806 C   0  0  0  0  0  0  0  0  0  0  0  0
  -27.8194   -0.0460   -6.8786 C   0  0  0  0  0  0  0  0  0  0  0  0
  -29.7880   -0.0496   -5.3833 C   0  0  0  0  0  0  0  0  0  0  0  0
  -30.5858    1.2037   -5.7398 C   0  0  0  0  0  0  0  0  0  0  0  0
  -27.3871   -9.5617  -12.0961 C   0  0  0  0  0  0  0  0  0  0  0  0
  -26.3592   -8.8910  -12.0736 O   0  0  0  0  0  0  0  0  0  0  0  0
  -28.1484   -9.7621  -13.1957 O   0  0  0  0  0  0  0  0  0  0  0  0
  -27.4261   -9.4023  -14.3814 C   0  0  0  0  0  0  0  0  0  0  0  0
 30 31  1  0  0  0
 31 29  1  0  0  0
 29 32  1  0  0  0
 29 28  1  0  0  0
 32 33  1  0  0  0
 28 27  1  0  0  0
 27 23  1  0  0  0
 23 24  1  0  0  0
 23 26  1  0  0  0
 24 25  2  0  0  0
 24  1  1  0  0  0
  1  2  2  0  0  0
  1  6  1  0  0  0
  2  3  1  0  0  0
  2  4  1  0  0  0
  4  5  1  0  0  0
  4 21  1  0  0  0
  5  6  2  0  0  0
  5 10  1  0  0  0
  6  7  1  0  0  0
  7  8  1  0  0  0
  8  9  1  0  0  0
  9 10  1  0  0  0
 10 11  2  0  0  0
 11 12  1  0  0  0
 11 20  1  0  0  0
 12 13  2  0  0  0
 12 14  1  0  0  0
 14 15  1  0  0  0
 14 22  1  0  0  0
 15 16  1  0  0  0
 15 20  2  0  0  0
 16 17  2  0  0  0
 17 18  1  0  0  0
 18 34  1  0  0  0
 18 19  2  0  0  0
 34 35  2  0  0  0
 34 36  1  0  0  0
 36 37  1  0  0  0
 19 20  1  0  0  0
M  END
> <minimizedAffinity>
-7.87489

$$$$
