CHEMBL507056


 25 28  0  0  0  0  0  0  0  0999 V2000
  -31.2657   -8.0069   -7.1254 C   0  0  0  0  0  0  0  0  0  0  0  0
  -30.5780   -8.9841   -7.7428 C   0  0  0  0  0  0  0  0  0  0  0  0
  -31.5642   -9.9979   -8.1422 C   0  0  0  0  0  0  0  0  0  0  0  0
  -31.3640  -11.0432   -8.7347 O   0  0  0  0  0  0  0  0  0  0  0  0
  -32.7967   -9.5494   -7.7136 N   0  0  0  0  0  0  0  0  0  0  0  0
  -32.7295   -8.2599   -7.0987 C   0  0  0  0  0  0  0  0  0  0  0  0
  -33.6365  -10.0671   -7.9089 H   0  0  0  0  0  0  0  0  0  0  0  0
  -29.1950   -8.9593   -8.0323 C   0  0  0  0  0  0  0  0  0  0  0  0
  -28.6832   -9.1315   -9.2970 C   0  0  0  0  0  0  0  0  0  0  0  0
  -27.5122   -9.8255   -9.1312 N   0  0  0  0  0  0  0  0  0  0  0  0
  -26.8891  -10.5884  -10.1886 C   0  0  0  0  0  0  0  0  0  0  0  0
  -27.1742   -9.8938   -7.7931 C   0  0  0  0  0  0  0  0  0  0  0  0
  -26.1419  -10.5752   -7.1282 C   0  0  0  0  0  0  0  0  0  0  0  0
  -26.0763  -10.4694   -5.7341 C   0  0  0  0  0  0  0  0  0  0  0  0
  -26.9911   -9.6948   -5.0261 C   0  0  0  0  0  0  0  0  0  0  0  0
  -28.0511   -9.0719   -5.6897 C   0  0  0  0  0  0  0  0  0  0  0  0
  -28.1604   -9.2001   -7.0905 C   0  0  0  0  0  0  0  0  0  0  0  0
  -29.6447   -4.3709   -5.5392 C   0  0  0  0  0  0  0  0  0  0  0  0
  -30.2445   -5.3063   -4.6982 C   0  0  0  0  0  0  0  0  0  0  0  0
  -30.7883   -6.4835   -5.2273 C   0  0  0  0  0  0  0  0  0  0  0  0
  -30.7367   -6.7425   -6.6012 C   0  0  0  0  0  0  0  0  0  0  0  0
  -30.1810   -5.7770   -7.4479 C   0  0  0  0  0  0  0  0  0  0  0  0
  -29.6420   -4.5969   -6.9171 C   0  0  0  0  0  0  0  0  0  0  0  0
  -28.6579   -3.1548   -3.7659 C   0  0  0  0  0  0  0  0  0  0  0  0
  -29.0692   -3.1976   -5.1298 O   0  0  0  0  0  0  0  0  0  0  0  0
 24 25  1  0  0  0
 25 18  1  0  0  0
 18 19  1  0  0  0
 18 23  2  0  0  0
 19 20  2  0  0  0
 20 21  1  0  0  0
 21  1  1  0  0  0
 21 22  2  0  0  0
  1  2  2  0  0  0
  1  6  1  0  0  0
  2  8  1  0  0  0
  2  3  1  0  0  0
  8  9  2  0  0  0
  8 17  1  0  0  0
  9 10  1  0  0  0
 10 11  1  0  0  0
 10 12  1  0  0  0
 12 13  1  0  0  0
 12 17  2  0  0  0
 13 14  2  0  0  0
 14 15  1  0  0  0
 15 16  2  0  0  0
 16 17  1  0  0  0
  3  4  2  0  0  0
  3  5  1  0  0  0
  5  6  1  0  0  0
  5  7  1  0  0  0
 22 23  1  0  0  0
M  END
> <minimizedAffinity>
-7.52746

$$$$
