CHEMBL213505


 34 37  0  0  0  0  0  0  0  0999 V2000
  -28.9337   -4.3471   -6.0958 C   0  0  0  0  0  0  0  0  0  0  0  0
  -28.1333   -3.2297   -5.8334 C   0  0  0  0  0  0  0  0  0  0  0  0
  -27.8380   -2.3090   -6.8433 C   0  0  0  0  0  0  0  0  0  0  0  0
  -28.3240   -2.4913   -8.1394 C   0  0  0  0  0  0  0  0  0  0  0  0
  -29.1902   -3.5582   -8.3878 C   0  0  0  0  0  0  0  0  0  0  0  0
  -29.5041   -4.4691   -7.3690 C   0  0  0  0  0  0  0  0  0  0  0  0
  -28.1404   -7.5212   -7.3543 N   0  0  0  0  0  0  0  0  0  0  0  0
  -28.5280   -7.7534   -6.0425 C   0  0  0  0  0  0  0  0  0  0  0  0
  -28.4963   -9.0444   -5.6412 N   0  0  0  0  0  0  0  0  0  0  0  0
  -28.8193   -9.3358   -4.3688 C   0  0  0  0  0  0  0  0  0  0  0  0
  -29.1815   -8.4876   -3.4025 N   0  0  0  0  0  0  0  0  0  0  0  0
  -29.2183   -7.2248   -3.8525 C   0  0  0  0  0  0  0  0  0  0  0  0
  -29.5499   -6.1629   -3.0731 O   0  0  0  0  0  0  0  0  0  0  0  0
  -29.4911   -5.0004   -3.8152 N   0  0  0  0  0  0  0  0  0  0  0  0
  -29.1287   -5.3632   -5.0593 C   0  0  0  0  0  0  0  0  0  0  0  0
  -28.9265   -6.7767   -5.1271 C   0  0  0  0  0  0  0  0  0  0  0  0
  -27.7064   -8.3537   -7.7398 H   0  0  0  0  0  0  0  0  0  0  0  0
  -27.6070   -6.6690   -7.4866 H   0  0  0  0  0  0  0  0  0  0  0  0
  -28.0015   -1.6212   -9.2016 N   0  0  0  0  0  0  0  0  0  0  0  0
  -27.1715   -1.9418  -10.2612 C   0  0  0  0  0  0  0  0  0  0  0  0
  -26.7604   -3.0669  -10.5191 O   0  0  0  0  0  0  0  0  0  0  0  0
  -26.8331   -0.8091  -10.9869 N   0  0  0  0  0  0  0  0  0  0  0  0
  -28.6173   -0.8369   -9.3617 H   0  0  0  0  0  0  0  0  0  0  0  0
  -26.7380    0.0181  -10.4117 H   0  0  0  0  0  0  0  0  0  0  0  0
  -26.0038   -0.8815  -12.1246 C   0  0  0  0  0  0  0  0  0  0  0  0
  -26.4579   -1.5967  -13.2331 C   0  0  0  0  0  0  0  0  0  0  0  0
  -25.6805   -1.6525  -14.3914 C   0  0  0  0  0  0  0  0  0  0  0  0
  -24.4227   -1.0492  -14.4222 C   0  0  0  0  0  0  0  0  0  0  0  0
  -23.9311   -0.3698  -13.2979 C   0  0  0  0  0  0  0  0  0  0  0  0
  -24.7458   -0.2721  -12.1563 C   0  0  0  0  0  0  0  0  0  0  0  0
  -22.5496    0.2342  -13.2920 C   0  0  0  0  0  0  0  0  0  0  0  0
  -22.5403    1.5658  -13.5877 F   0  0  0  0  0  0  0  0  0  0  0  0
  -21.9187    0.1158  -12.0928 F   0  0  0  0  0  0  0  0  0  0  0  0
  -21.7263   -0.3488  -14.2092 F   0  0  0  0  0  0  0  0  0  0  0  0
  7  8  1  0  0  0
  7 17  1  0  0  0
  7 18  1  0  0  0
  8  9  1  0  0  0
  8 16  2  0  0  0
  9 10  2  0  0  0
 10 11  1  0  0  0
 11 12  2  0  0  0
 12 13  1  0  0  0
 12 16  1  0  0  0
 13 14  1  0  0  0
 14 15  2  0  0  0
 15  1  1  0  0  0
 15 16  1  0  0  0
  1  2  1  0  0  0
  1  6  2  0  0  0
  2  3  2  0  0  0
  3  4  1  0  0  0
  4 19  1  0  0  0
  4  5  2  0  0  0
 19 20  1  0  0  0
 19 23  1  0  0  0
 20 21  2  0  0  0
 20 22  1  0  0  0
 22 25  1  0  0  0
 22 24  1  0  0  0
 25 26  1  0  0  0
 25 30  2  0  0  0
 26 27  2  0  0  0
 27 28  1  0  0  0
 28 29  2  0  0  0
 29 31  1  0  0  0
 29 30  1  0  0  0
 31 32  1  0  0  0
 31 33  1  0  0  0
 31 34  1  0  0  0
  5  6  1  0  0  0
M  END
> <minimizedAffinity>
-10.24243

$$$$
