CHEMBL365631


 32 35  0  0  0  0  0  0  0  0999 V2000
  -27.2541   -1.4734   -9.7652 C   0  0  0  0  0  0  0  0  0  0  0  0
  -28.1846   -1.3816  -10.7997 C   0  0  0  0  0  0  0  0  0  0  0  0
  -27.8932   -1.5115  -12.1161 N   0  0  0  0  0  0  0  0  0  0  0  0
  -26.6043   -1.7956  -12.4183 C   0  0  0  0  0  0  0  0  0  0  0  0
  -25.5828   -1.9586  -11.4865 C   0  0  0  0  0  0  0  0  0  0  0  0
  -25.9334   -1.7705  -10.1462 C   0  0  0  0  0  0  0  0  0  0  0  0
  -27.9274   -2.2714   -6.2695 C   0  0  0  0  0  0  0  0  0  0  0  0
  -28.3496   -1.0340   -5.7801 C   0  0  0  0  0  0  0  0  0  0  0  0
  -28.4076    0.0921   -6.5316 N   0  0  0  0  0  0  0  0  0  0  0  0
  -28.0554   -0.0715   -7.8274 C   0  0  0  0  0  0  0  0  0  0  0  0
  -27.6463   -1.2907   -8.3618 C   0  0  0  0  0  0  0  0  0  0  0  0
  -27.5903   -2.3965   -7.5751 N   0  0  0  0  0  0  0  0  0  0  0  0
  -27.9547   -3.4144   -5.4313 N   0  0  0  0  0  0  0  0  0  0  0  0
  -27.0866   -3.9359   -5.5221 H   0  0  0  0  0  0  0  0  0  0  0  0
  -32.1464   -5.1055   -3.0138 Cl  0  0  0  0  0  0  0  0  0  0  0  0
  -30.9768   -5.2280   -4.2705 C   0  0  0  0  0  0  0  0  0  0  0  0
  -31.0562   -6.2759   -5.1855 C   0  0  0  0  0  0  0  0  0  0  0  0
  -30.1047   -6.3810   -6.1957 C   0  0  0  0  0  0  0  0  0  0  0  0
  -29.0887   -5.4284   -6.2950 C   0  0  0  0  0  0  0  0  0  0  0  0
  -29.0240   -4.3474   -5.4036 C   0  0  0  0  0  0  0  0  0  0  0  0
  -29.9561   -4.2787   -4.3626 C   0  0  0  0  0  0  0  0  0  0  0  0
  -24.3161   -2.3557  -11.9083 N   0  0  0  0  0  0  0  0  0  0  0  0
  -24.3064   -2.7336  -12.8541 H   0  0  0  0  0  0  0  0  0  0  0  0
  -23.1235   -1.6245  -11.5133 C   0  0  0  0  0  0  0  0  0  0  0  0
  -23.1563   -0.2366  -12.1532 C   0  0  0  0  0  0  0  0  0  0  0  0
  -22.8112   -0.3190  -13.6402 C   0  0  0  0  0  0  0  0  0  0  0  0
  -21.9622    0.8367  -14.1003 C   0  0  0  0  0  0  0  0  0  0  0  0
  -22.4023    2.1528  -13.9458 C   0  0  0  0  0  0  0  0  0  0  0  0
  -21.5773    3.1843  -14.3693 C   0  0  0  0  0  0  0  0  0  0  0  0
  -20.3655    2.9956  -14.9326 N   0  0  0  0  0  0  0  0  0  0  0  0
  -19.9634    1.7165  -15.0842 C   0  0  0  0  0  0  0  0  0  0  0  0
  -20.7161    0.6187  -14.6945 C   0  0  0  0  0  0  0  0  0  0  0  0
 15 16  1  0  0  0
 16 17  1  0  0  0
 16 21  2  0  0  0
 17 18  2  0  0  0
 18 19  1  0  0  0
 19 20  2  0  0  0
 20 13  1  0  0  0
 20 21  1  0  0  0
 13  7  1  0  0  0
 13 14  1  0  0  0
  7  8  1  0  0  0
  7 12  2  0  0  0
  8  9  2  0  0  0
  9 10  1  0  0  0
 10 11  2  0  0  0
 11  1  1  0  0  0
 11 12  1  0  0  0
  1  2  1  0  0  0
  1  6  2  0  0  0
  2  3  2  0  0  0
  3  4  1  0  0  0
  4  5  2  0  0  0
  5 22  1  0  0  0
  5  6  1  0  0  0
 22 24  1  0  0  0
 22 23  1  0  0  0
 24 25  1  0  0  0
 25 26  1  0  0  0
 26 27  1  0  0  0
 27 28  1  0  0  0
 27 32  2  0  0  0
 28 29  2  0  0  0
 29 30  1  0  0  0
 30 31  2  0  0  0
 31 32  1  0  0  0
M  END
> <minimizedAffinity>
-9.15248

$$$$
