CHEMBL1681943


 32 34  0  0  0  0  0  0  0  0999 V2000
  -12.1812   -3.0247  -11.7958 C   0  0  0  0  0  0  0  0  0  0  0  0
  -13.5037   -3.3627  -11.5170 C   0  0  0  0  0  0  0  0  0  0  0  0
  -14.5388   -2.8232  -12.2777 C   0  0  0  0  0  0  0  0  0  0  0  0
  -14.2887   -1.9231  -13.3201 C   0  0  0  0  0  0  0  0  0  0  0  0
  -12.9645   -1.4954  -13.5121 C   0  0  0  0  0  0  0  0  0  0  0  0
  -12.5793   -0.3241  -14.7260 Cl  0  0  0  0  0  0  0  0  0  0  0  0
  -11.9138   -2.0484  -12.7550 C   0  0  0  0  0  0  0  0  0  0  0  0
  -15.3347   -1.4648  -14.1766 N   0  0  0  0  0  0  0  0  0  0  0  0
  -15.9747   -0.2403  -14.0034 C   0  0  0  0  0  0  0  0  0  0  0  0
  -15.7006    0.5328  -13.0894 O   0  0  0  0  0  0  0  0  0  0  0  0
  -16.9664   -0.0025  -14.9299 N   0  0  0  0  0  0  0  0  0  0  0  0
  -15.7885   -2.1678  -14.7405 H   0  0  0  0  0  0  0  0  0  0  0  0
  -17.3887   -0.7508  -15.4529 H   0  0  0  0  0  0  0  0  0  0  0  0
  -17.6612    1.1817  -14.8543 C   0  0  0  0  0  0  0  0  0  0  0  0
  -18.7786    1.4262  -14.2173 N   0  0  0  0  0  0  0  0  0  0  0  0
  -19.2308    2.6859  -14.5302 C   0  0  0  0  0  0  0  0  0  0  0  0
  -18.4074    3.4128  -15.3619 C   0  0  0  0  0  0  0  0  0  0  0  0
  -17.0039    2.4872  -15.7355 S   0  0  0  0  0  0  0  0  0  0  0  0
  -11.1282   -3.6020  -11.1093 O   0  0  0  0  0  0  0  0  0  0  0  0
  -11.3478   -5.0740   -9.2257 C   0  0  0  0  0  0  0  0  0  0  0  0
  -11.5558   -5.1731   -7.8544 C   0  0  0  0  0  0  0  0  0  0  0  0
  -11.5437   -6.3880   -7.1720 N   0  0  0  0  0  0  0  0  0  0  0  0
  -11.6688   -4.0971   -7.0574 N   0  0  0  0  0  0  0  0  0  0  0  0
  -11.6034   -2.9016   -7.6512 C   0  0  0  0  0  0  0  0  0  0  0  0
  -11.4545   -2.6903   -8.9608 N   0  0  0  0  0  0  0  0  0  0  0  0
  -11.2978   -3.7892   -9.7338 C   0  0  0  0  0  0  0  0  0  0  0  0
  -12.0500   -7.1131   -7.6806 H   0  0  0  0  0  0  0  0  0  0  0  0
  -11.8503   -6.2483   -6.2156 H   0  0  0  0  0  0  0  0  0  0  0  0
  -12.2319   -6.8565  -10.5895 N   0  0  0  0  0  0  0  0  0  0  0  0
  -11.1975   -6.2581  -10.0846 C   0  0  0  0  0  0  0  0  0  0  0  0
  -12.9838   -8.6316  -11.8179 C   0  0  0  0  0  0  0  0  0  0  0  0
  -11.8187   -7.9634  -11.3413 O   0  0  0  0  0  0  0  0  0  0  0  0
 31 32  1  0  0  0
 32 29  1  0  0  0
 29 30  2  0  0  0
 30 20  1  0  0  0
 20 21  1  0  0  0
 20 26  2  0  0  0
 21 22  1  0  0  0
 21 23  2  0  0  0
 22 27  1  0  0  0
 22 28  1  0  0  0
 23 24  1  0  0  0
 24 25  2  0  0  0
 25 26  1  0  0  0
 26 19  1  0  0  0
 19  1  1  0  0  0
  1  2  1  0  0  0
  1  7  2  0  0  0
  2  3  2  0  0  0
  3  4  1  0  0  0
  4  8  1  0  0  0
  4  5  2  0  0  0
  8  9  1  0  0  0
  8 12  1  0  0  0
  9 10  2  0  0  0
  9 11  1  0  0  0
 11 14  1  0  0  0
 11 13  1  0  0  0
 14 15  2  0  0  0
 14 18  1  0  0  0
 15 16  1  0  0  0
 16 17  2  0  0  0
 17 18  1  0  0  0
  5  6  1  0  0  0
  5  7  1  0  0  0
M  END
> <minimizedAffinity>
-7.05386

$$$$
