CHEMBL3694705


 40 43  0  0  0  0  0  0  0  0999 V2000
  -27.8185   -2.2061   -9.1017 C   0  0  0  0  0  0  0  0  0  0  0  0
  -28.6857   -3.3645   -8.8262 C   0  0  0  0  0  0  0  0  0  0  0  0
  -29.1752   -3.5710   -7.5902 C   0  0  0  0  0  0  0  0  0  0  0  0
  -28.8318   -2.7037   -6.5481 N   0  0  0  0  0  0  0  0  0  0  0  0
  -29.1253   -2.7266   -5.1805 C   0  0  0  0  0  0  0  0  0  0  0  0
  -28.5771   -1.5420   -4.7083 C   0  0  0  0  0  0  0  0  0  0  0  0
  -27.9190   -0.8479   -5.6834 N   0  0  0  0  0  0  0  0  0  0  0  0
  -28.0466   -1.5749   -6.7697 C   0  0  0  0  0  0  0  0  0  0  0  0
  -27.5328   -1.3602   -8.0823 C   0  0  0  0  0  0  0  0  0  0  0  0
  -25.4479   -1.4327  -11.7711 C   0  0  0  0  0  0  0  0  0  0  0  0
  -25.9683   -1.6493  -10.5504 N   0  0  0  0  0  0  0  0  0  0  0  0
  -27.2820   -1.9080  -10.4585 C   0  0  0  0  0  0  0  0  0  0  0  0
  -28.1126   -1.9530  -11.5207 N   0  0  0  0  0  0  0  0  0  0  0  0
  -27.5582   -1.7232  -12.7289 C   0  0  0  0  0  0  0  0  0  0  0  0
  -26.2256   -1.4489  -12.9087 C   0  0  0  0  0  0  0  0  0  0  0  0
  -25.7141   -1.2301  -14.1273 F   0  0  0  0  0  0  0  0  0  0  0  0
  -23.5616    0.0666  -12.1613 C   0  0  0  0  0  0  0  0  0  0  0  0
  -24.1602    1.1291  -12.2102 O   0  0  0  0  0  0  0  0  0  0  0  0
  -24.0781   -1.1704  -11.9041 N   0  0  0  0  0  0  0  0  0  0  0  0
  -23.4212   -1.9333  -11.8306 H   0  0  0  0  0  0  0  0  0  0  0  0
  -22.2251   -0.0559  -12.3942 O   0  0  0  0  0  0  0  0  0  0  0  0
  -21.0916    1.3172  -14.0140 C   0  0  0  0  0  0  0  0  0  0  0  0
  -21.8652    0.0305  -13.7830 C   0  0  0  0  0  0  0  0  0  0  0  0
  -29.7807   -3.8046   -4.4174 C   0  0  0  0  0  0  0  0  0  0  0  0
  -31.1646   -3.7800   -4.2120 C   0  0  0  0  0  0  0  0  0  0  0  0
  -31.8057   -4.8005   -3.5222 C   0  0  0  0  0  0  0  0  0  0  0  0
  -31.0852   -5.9068   -3.0893 C   0  0  0  0  0  0  0  0  0  0  0  0
  -29.7162   -6.0186   -3.3398 C   0  0  0  0  0  0  0  0  0  0  0  0
  -29.0627   -4.9411   -3.9721 C   0  0  0  0  0  0  0  0  0  0  0  0
  -28.9762   -7.1795   -2.9997 N   0  0  0  0  0  0  0  0  0  0  0  0
  -28.2386   -7.9556   -3.8740 C   0  0  0  0  0  0  0  0  0  0  0  0
  -28.0930   -7.7784   -5.0784 O   0  0  0  0  0  0  0  0  0  0  0  0
  -27.6668   -9.0550   -3.2730 N   0  0  0  0  0  0  0  0  0  0  0  0
  -28.9541   -7.4422   -2.0282 H   0  0  0  0  0  0  0  0  0  0  0  0
  -27.3915   -8.9544   -2.3066 H   0  0  0  0  0  0  0  0  0  0  0  0
  -26.8570   -9.9555   -4.1102 C   0  0  0  0  0  0  0  0  0  0  0  0
  -25.3413   -9.6979   -4.1266 C   0  0  0  0  0  0  0  0  0  0  0  0
  -24.6454  -10.7095   -3.5591 F   0  0  0  0  0  0  0  0  0  0  0  0
  -24.9077   -9.5993   -5.4097 F   0  0  0  0  0  0  0  0  0  0  0  0
  -25.0036   -8.5497   -3.5046 F   0  0  0  0  0  0  0  0  0  0  0  0
 22 23  1  0  0  0
 23 21  1  0  0  0
 21 17  1  0  0  0
 17 18  2  0  0  0
 17 19  1  0  0  0
 19 10  1  0  0  0
 19 20  1  0  0  0
 10 11  1  0  0  0
 10 15  2  0  0  0
 11 12  2  0  0  0
 12  1  1  0  0  0
 12 13  1  0  0  0
  1  2  1  0  0  0
  1  9  2  0  0  0
  2  3  2  0  0  0
  3  4  1  0  0  0
  4  5  1  0  0  0
  4  8  1  0  0  0
  5 24  1  0  0  0
  5  6  2  0  0  0
 24 25  1  0  0  0
 24 29  2  0  0  0
 25 26  2  0  0  0
 26 27  1  0  0  0
 27 28  2  0  0  0
 28 30  1  0  0  0
 28 29  1  0  0  0
 30 31  1  0  0  0
 30 34  1  0  0  0
 31 32  2  0  0  0
 31 33  1  0  0  0
 33 36  1  0  0  0
 33 35  1  0  0  0
 36 37  1  0  0  0
 37 38  1  0  0  0
 37 39  1  0  0  0
 37 40  1  0  0  0
  6  7  1  0  0  0
  7  8  2  0  0  0
  8  9  1  0  0  0
 13 14  2  0  0  0
 14 15  1  0  0  0
 15 16  1  0  0  0
M  END
> <minimizedAffinity>
-9.80565

$$$$
