CHEMBL4793380


 35 38  0  0  0  0  0  0  0  0999 V2000
  -28.9296   -7.0354   -4.8580 C   0  0  0  0  0  0  0  0  0  0  0  0
  -28.6378   -7.8069   -3.7271 C   0  0  0  0  0  0  0  0  0  0  0  0
  -28.0395   -9.0587   -3.8538 C   0  0  0  0  0  0  0  0  0  0  0  0
  -27.7656   -9.5969   -5.1152 C   0  0  0  0  0  0  0  0  0  0  0  0
  -28.0469   -8.8027   -6.2392 C   0  0  0  0  0  0  0  0  0  0  0  0
  -28.6574   -7.5483   -6.1228 C   0  0  0  0  0  0  0  0  0  0  0  0
  -31.1775   -4.2263   -4.4413 N   0  0  0  0  0  0  0  0  0  0  0  0
  -30.7889   -5.5278   -4.5874 C   0  0  0  0  0  0  0  0  0  0  0  0
  -31.6061   -6.4468   -4.5828 O   0  0  0  0  0  0  0  0  0  0  0  0
  -29.4242   -5.7411   -4.7036 N   0  0  0  0  0  0  0  0  0  0  0  0
  -32.1664   -3.9964   -4.3325 H   0  0  0  0  0  0  0  0  0  0  0  0
  -28.8462   -5.0448   -4.2320 H   0  0  0  0  0  0  0  0  0  0  0  0
  -29.2734   -1.2598   -4.9859 C   0  0  0  0  0  0  0  0  0  0  0  0
  -30.2658   -2.1109   -5.3854 C   0  0  0  0  0  0  0  0  0  0  0  0
  -30.2939   -3.1507   -4.4683 C   0  0  0  0  0  0  0  0  0  0  0  0
  -29.3311   -2.9418   -3.5526 N   0  0  0  0  0  0  0  0  0  0  0  0
  -28.6996   -1.7704   -3.8676 O   0  0  0  0  0  0  0  0  0  0  0  0
  -30.0859    0.8874   -5.8775 C   0  0  0  0  0  0  0  0  0  0  0  0
  -28.8277    0.0493   -5.5609 C   0  0  0  0  0  0  0  0  0  0  0  0
  -28.0750   -0.2136   -6.8858 C   0  0  0  0  0  0  0  0  0  0  0  0
  -27.9075    0.8533   -4.6346 C   0  0  0  0  0  0  0  0  0  0  0  0
  -27.1288  -10.8660   -5.2440 N   0  0  0  0  0  0  0  0  0  0  0  0
  -27.7555  -11.5045   -5.7221 H   0  0  0  0  0  0  0  0  0  0  0  0
  -25.8479  -11.0225   -5.8418 C   0  0  0  0  0  0  0  0  0  0  0  0
  -25.8149  -11.4841   -7.1082 N   0  0  0  0  0  0  0  0  0  0  0  0
  -24.6155  -11.5614   -7.6828 C   0  0  0  0  0  0  0  0  0  0  0  0
  -23.4376  -11.2909   -7.1118 N   0  0  0  0  0  0  0  0  0  0  0  0
  -23.4707  -10.8956   -5.8318 C   0  0  0  0  0  0  0  0  0  0  0  0
  -24.6744  -10.7640   -5.1345 C   0  0  0  0  0  0  0  0  0  0  0  0
  -24.7096  -10.3010   -3.8468 O   0  0  0  0  0  0  0  0  0  0  0  0
  -24.1688  -11.2743   -2.9491 C   0  0  0  0  0  0  0  0  0  0  0  0
  -22.6568  -11.1393   -2.8339 C   0  0  0  0  0  0  0  0  0  0  0  0
  -21.9417  -11.5387   -4.1222 C   0  0  0  0  0  0  0  0  0  0  0  0
  -22.2271  -10.6224   -5.2274 N   0  0  0  0  0  0  0  0  0  0  0  0
  -22.2479   -9.6605   -4.8958 H   0  0  0  0  0  0  0  0  0  0  0  0
 18 19  1  0  0  0
 19 20  1  0  0  0
 19 21  1  0  0  0
 19 13  1  0  0  0
 13 14  2  0  0  0
 13 17  1  0  0  0
 14 15  1  0  0  0
 15  7  1  0  0  0
 15 16  2  0  0  0
  7  8  1  0  0  0
  7 11  1  0  0  0
  8  9  2  0  0  0
  8 10  1  0  0  0
 10  1  1  0  0  0
 10 12  1  0  0  0
  1  2  1  0  0  0
  1  6  2  0  0  0
  2  3  2  0  0  0
  3  4  1  0  0  0
  4 22  1  0  0  0
  4  5  2  0  0  0
 22 24  1  0  0  0
 22 23  1  0  0  0
 24 25  1  0  0  0
 24 29  2  0  0  0
 25 26  2  0  0  0
 26 27  1  0  0  0
 27 28  2  0  0  0
 28 29  1  0  0  0
 28 34  1  0  0  0
 29 30  1  0  0  0
 30 31  1  0  0  0
 31 32  1  0  0  0
 32 33  1  0  0  0
 33 34  1  0  0  0
 34 35  1  0  0  0
  5  6  1  0  0  0
 16 17  1  0  0  0
M  END
> <minimizedAffinity>
-8.69470

$$$$
