CHEMBL3983179


 32 35  0  0  0  0  0  0  0  0999 V2000
  -28.7455   -7.7289   -5.8034 C   0  0  0  0  0  0  0  0  0  0  0  0
  -28.1337   -8.9654   -6.0449 C   0  0  0  0  0  0  0  0  0  0  0  0
  -28.2511   -9.6052   -7.3068 C   0  0  0  0  0  0  0  0  0  0  0  0
  -27.5663  -10.7578   -7.7039 C   0  0  0  0  0  0  0  0  0  0  0  0
  -27.6617  -11.2618   -8.9523 N   0  0  0  0  0  0  0  0  0  0  0  0
  -28.4681  -10.6266   -9.8023 C   0  0  0  0  0  0  0  0  0  0  0  0
  -29.1901   -9.5455   -9.5229 N   0  0  0  0  0  0  0  0  0  0  0  0
  -29.0556   -9.0444   -8.2926 C   0  0  0  0  0  0  0  0  0  0  0  0
  -29.7319   -7.8832   -8.0048 C   0  0  0  0  0  0  0  0  0  0  0  0
  -29.5755   -7.1833   -6.7938 C   0  0  0  0  0  0  0  0  0  0  0  0
  -29.3496   -7.4077   -3.5241 C   0  0  0  0  0  0  0  0  0  0  0  0
  -28.5506   -7.0216   -4.6455 O   0  0  0  0  0  0  0  0  0  0  0  0
  -26.7041  -11.4032   -6.7789 N   0  0  0  0  0  0  0  0  0  0  0  0
  -26.9923  -12.3727   -6.6756 H   0  0  0  0  0  0  0  0  0  0  0  0
  -25.3085  -11.2267   -6.7707 C   0  0  0  0  0  0  0  0  0  0  0  0
  -24.7106  -10.3463   -5.8576 C   0  0  0  0  0  0  0  0  0  0  0  0
  -23.3380  -10.0957   -5.9021 C   0  0  0  0  0  0  0  0  0  0  0  0
  -22.5475  -10.7281   -6.8602 C   0  0  0  0  0  0  0  0  0  0  0  0
  -20.8676  -10.3305   -6.9034 Cl  0  0  0  0  0  0  0  0  0  0  0  0
  -23.1286  -11.6376   -7.7524 C   0  0  0  0  0  0  0  0  0  0  0  0
  -22.2111  -12.4645   -8.9612 Cl  0  0  0  0  0  0  0  0  0  0  0  0
  -24.5042  -11.8885   -7.7008 C   0  0  0  0  0  0  0  0  0  0  0  0
  -30.1849   -5.9578   -6.5677 O   0  0  0  0  0  0  0  0  0  0  0  0
  -29.5587   -4.8802   -7.2872 C   0  0  0  0  0  0  0  0  0  0  0  0
  -28.7421   -3.8917   -6.4396 C   0  0  0  0  0  0  0  0  0  0  0  0
  -29.3973   -3.7752   -5.0342 C   0  0  0  0  0  0  0  0  0  0  0  0
  -28.7543   -2.7539   -4.1795 N   0  0  0  0  0  0  0  0  0  0  0  0
  -29.4647   -2.6334   -2.9099 C   0  0  0  0  0  0  0  0  0  0  0  0
  -28.7390   -1.4628   -4.8904 C   0  0  0  0  0  0  0  0  0  0  0  0
  -28.0304   -1.5733   -6.2529 C   0  0  0  0  0  0  0  0  0  0  0  0
  -28.6818   -2.5597   -7.1277 N   0  0  0  0  0  0  0  0  0  0  0  0
  -28.0042   -2.6081   -8.4248 C   0  0  0  0  0  0  0  0  0  0  0  0
 11 12  1  0  0  0
 12  1  1  0  0  0
  1  2  1  0  0  0
  1 10  2  0  0  0
  2  3  2  0  0  0
  3  4  1  0  0  0
  3  8  1  0  0  0
  4 13  1  0  0  0
  4  5  2  0  0  0
 13 15  1  0  0  0
 13 14  1  0  0  0
 15 16  1  0  0  0
 15 22  2  0  0  0
 16 17  2  0  0  0
 17 18  1  0  0  0
 18 19  1  0  0  0
 18 20  2  0  0  0
 20 21  1  0  0  0
 20 22  1  0  0  0
  5  6  1  0  0  0
  6  7  2  0  0  0
  7  8  1  0  0  0
  8  9  2  0  0  0
  9 10  1  0  0  0
 10 23  1  0  0  0
 23 24  1  0  0  0
 24 25  1  0  0  0
 25 26  1  0  0  0
 25 31  1  0  0  0
 26 27  1  0  0  0
 27 28  1  0  0  0
 27 29  1  0  0  0
 29 30  1  0  0  0
 30 31  1  0  0  0
 31 32  1  0  0  0
M  END
> <minimizedAffinity>
-7.58788

$$$$
