CHEMBL2448064


 31 34  0  0  0  0  0  0  0  0999 V2000
  -29.8335   -5.3725   -4.9354 C   0  0  0  0  0  0  0  0  0  0  0  0
  -29.3643   -6.6946   -4.8376 C   0  0  0  0  0  0  0  0  0  0  0  0
  -28.9591   -7.4090   -5.9716 C   0  0  0  0  0  0  0  0  0  0  0  0
  -28.5409   -8.7606   -5.9102 C   0  0  0  0  0  0  0  0  0  0  0  0
  -28.1899   -9.3913   -7.0642 N   0  0  0  0  0  0  0  0  0  0  0  0
  -28.2232   -8.7590   -8.2638 C   0  0  0  0  0  0  0  0  0  0  0  0
  -28.6343   -7.4685   -8.3433 N   0  0  0  0  0  0  0  0  0  0  0  0
  -29.0125   -6.7824   -7.2323 C   0  0  0  0  0  0  0  0  0  0  0  0
  -29.4737   -5.4627   -7.3483 C   0  0  0  0  0  0  0  0  0  0  0  0
  -29.8992   -4.7435   -6.2213 C   0  0  0  0  0  0  0  0  0  0  0  0
  -31.5150   -4.3698   -3.3808 C   0  0  0  0  0  0  0  0  0  0  0  0
  -30.2532   -4.6959   -3.8306 O   0  0  0  0  0  0  0  0  0  0  0  0
  -28.4386   -9.4676   -4.6713 N   0  0  0  0  0  0  0  0  0  0  0  0
  -29.2879   -9.6023   -4.1033 H   0  0  0  0  0  0  0  0  0  0  0  0
  -27.2174   -9.9745   -4.1354 C   0  0  0  0  0  0  0  0  0  0  0  0
  -26.0622   -9.1741   -4.1872 C   0  0  0  0  0  0  0  0  0  0  0  0
  -24.8579   -9.6222   -3.6359 C   0  0  0  0  0  0  0  0  0  0  0  0
  -24.7973  -10.8649   -3.0013 C   0  0  0  0  0  0  0  0  0  0  0  0
  -23.2948  -11.4145   -2.2819 Cl  0  0  0  0  0  0  0  0  0  0  0  0
  -25.9402  -11.6636   -2.9249 C   0  0  0  0  0  0  0  0  0  0  0  0
  -27.1437  -11.2316   -3.4892 C   0  0  0  0  0  0  0  0  0  0  0  0
  -28.2367  -12.0209   -3.3430 F   0  0  0  0  0  0  0  0  0  0  0  0
  -30.3672   -3.4656   -6.4178 O   0  0  0  0  0  0  0  0  0  0  0  0
  -29.5648   -2.3398   -6.4028 C   0  0  0  0  0  0  0  0  0  0  0  0
  -29.7237   -1.4308   -5.1697 C   0  0  0  0  0  0  0  0  0  0  0  0
  -29.9947    0.0459   -5.5081 C   0  0  0  0  0  0  0  0  0  0  0  0
  -28.7795    0.6902   -6.2023 C   0  0  0  0  0  0  0  0  0  0  0  0
  -27.5656    0.5752   -5.3737 N   0  0  0  0  0  0  0  0  0  0  0  0
  -27.2482   -0.8256   -5.0544 C   0  0  0  0  0  0  0  0  0  0  0  0
  -28.4290   -1.5009   -4.3224 C   0  0  0  0  0  0  0  0  0  0  0  0
  -27.7033    1.1044   -4.4815 H   0  0  0  0  0  0  0  0  0  0  0  0
 11 12  1  0  0  0
 12  1  1  0  0  0
  1  2  1  0  0  0
  1 10  2  0  0  0
  2  3  2  0  0  0
  3  4  1  0  0  0
  3  8  1  0  0  0
  4 13  1  0  0  0
  4  5  2  0  0  0
 13 15  1  0  0  0
 13 14  1  0  0  0
 15 16  1  0  0  0
 15 21  2  0  0  0
 16 17  2  0  0  0
 17 18  1  0  0  0
 18 19  1  0  0  0
 18 20  2  0  0  0
 20 21  1  0  0  0
 21 22  1  0  0  0
  5  6  1  0  0  0
  6  7  2  0  0  0
  7  8  1  0  0  0
  8  9  2  0  0  0
  9 10  1  0  0  0
 10 23  1  0  0  0
 23 24  1  0  0  0
 24 25  1  0  0  0
 25 26  1  0  0  0
 25 30  1  0  0  0
 26 27  1  0  0  0
 27 28  1  0  0  0
 28 29  1  0  0  0
 28 31  1  0  0  0
 29 30  1  0  0  0
M  END
> <minimizedAffinity>
-8.10678

$$$$
