CHEMBL376951


 31 34  0  0  0  0  0  0  0  0999 V2000
  -30.0362   -6.3104   -5.1213 C   0  0  0  0  0  0  0  0  0  0  0  0
  -28.9732   -7.1831   -4.8762 C   0  0  0  0  0  0  0  0  0  0  0  0
  -28.8098   -8.3361   -5.6484 C   0  0  0  0  0  0  0  0  0  0  0  0
  -29.7142   -8.6457   -6.6741 C   0  0  0  0  0  0  0  0  0  0  0  0
  -30.8477   -7.8352   -6.8199 C   0  0  0  0  0  0  0  0  0  0  0  0
  -31.0063   -6.6685   -6.0557 C   0  0  0  0  0  0  0  0  0  0  0  0
  -29.4405   -9.7887   -7.5668 C   0  0  0  0  0  0  0  0  0  0  0  0
  -30.0560  -10.9481   -7.2854 N   0  0  0  0  0  0  0  0  0  0  0  0
  -29.5947  -12.1060   -8.3638 S   0  0  0  0  0  0  0  0  0  0  0  0
  -28.5502  -11.1131   -9.2575 C   0  0  0  0  0  0  0  0  0  0  0  0
  -27.8670  -11.5669  -10.3208 N   0  0  0  0  0  0  0  0  0  0  0  0
  -27.1052  -10.6181  -10.8631 C   0  0  0  0  0  0  0  0  0  0  0  0
  -26.9669   -9.3523  -10.4446 N   0  0  0  0  0  0  0  0  0  0  0  0
  -27.6559   -8.9404   -9.3606 C   0  0  0  0  0  0  0  0  0  0  0  0
  -27.4047   -7.6277   -8.9809 N   0  0  0  0  0  0  0  0  0  0  0  0
  -28.5281   -9.8360   -8.7110 C   0  0  0  0  0  0  0  0  0  0  0  0
  -26.6022   -7.2754   -9.4941 H   0  0  0  0  0  0  0  0  0  0  0  0
  -27.3553   -7.4870   -7.9785 H   0  0  0  0  0  0  0  0  0  0  0  0
  -29.6666   -2.7923   -4.2987 N   0  0  0  0  0  0  0  0  0  0  0  0
  -29.4768   -3.9437   -5.0478 C   0  0  0  0  0  0  0  0  0  0  0  0
  -28.8624   -4.0029   -6.1060 O   0  0  0  0  0  0  0  0  0  0  0  0
  -30.1145   -5.0469   -4.4834 N   0  0  0  0  0  0  0  0  0  0  0  0
  -29.9955   -2.9155   -3.3537 H   0  0  0  0  0  0  0  0  0  0  0  0
  -30.9814   -4.8330   -4.0132 H   0  0  0  0  0  0  0  0  0  0  0  0
  -30.8428    1.5895   -6.3018 C   0  0  0  0  0  0  0  0  0  0  0  0
  -29.8356    0.6726   -5.6700 C   0  0  0  0  0  0  0  0  0  0  0  0
  -28.5251    1.1144   -5.4691 C   0  0  0  0  0  0  0  0  0  0  0  0
  -27.5868    0.2711   -4.8892 C   0  0  0  0  0  0  0  0  0  0  0  0
  -27.9506   -1.0192   -4.5049 C   0  0  0  0  0  0  0  0  0  0  0  0
  -29.2596   -1.4823   -4.6749 C   0  0  0  0  0  0  0  0  0  0  0  0
  -30.1972   -0.6304   -5.2703 C   0  0  0  0  0  0  0  0  0  0  0  0
 25 26  1  0  0  0
 26 27  1  0  0  0
 26 31  2  0  0  0
 27 28  2  0  0  0
 28 29  1  0  0  0
 29 30  2  0  0  0
 30 19  1  0  0  0
 30 31  1  0  0  0
 19 20  1  0  0  0
 19 23  1  0  0  0
 20 21  2  0  0  0
 20 22  1  0  0  0
 22  1  1  0  0  0
 22 24  1  0  0  0
  1  2  1  0  0  0
  1  6  2  0  0  0
  2  3  2  0  0  0
  3  4  1  0  0  0
  4  7  1  0  0  0
  4  5  2  0  0  0
  7  8  2  0  0  0
  7 16  1  0  0  0
  8  9  1  0  0  0
  9 10  1  0  0  0
 10 11  1  0  0  0
 10 16  2  0  0  0
 11 12  2  0  0  0
 12 13  1  0  0  0
 13 14  2  0  0  0
 14 15  1  0  0  0
 14 16  1  0  0  0
 15 17  1  0  0  0
 15 18  1  0  0  0
  5  6  1  0  0  0
M  END
> <minimizedAffinity>
-9.07783

$$$$
