CHEMBL1087638


 44 48  0  0  0  0  0  0  0  0999 V2000
  -29.3238   -6.6268   -6.7215 N   0  0  0  0  0  0  0  0  0  0  0  0
  -30.3373   -6.7027   -6.6878 H   0  0  0  0  0  0  0  0  0  0  0  0
  -28.8247   -7.7961   -7.2173 C   0  0  0  0  0  0  0  0  0  0  0  0
  -29.3669   -8.2579   -8.3318 N   0  0  0  0  0  0  0  0  0  0  0  0
  -30.0843   -9.3342   -7.8820 C   0  0  0  0  0  0  0  0  0  0  0  0
  -31.1782   -9.9792   -8.4710 C   0  0  0  0  0  0  0  0  0  0  0  0
  -31.8237  -10.9833   -7.7429 C   0  0  0  0  0  0  0  0  0  0  0  0
  -31.3478  -11.3803   -6.4903 C   0  0  0  0  0  0  0  0  0  0  0  0
  -30.2153  -10.7911   -5.9164 C   0  0  0  0  0  0  0  0  0  0  0  0
  -29.6298   -9.7374   -6.6249 C   0  0  0  0  0  0  0  0  0  0  0  0
  -28.5300   -8.9060   -6.4226 N   0  0  0  0  0  0  0  0  0  0  0  0
  -27.3276   -9.2546   -5.7395 C   0  0  0  0  0  0  0  0  0  0  0  0
  -26.5014  -10.2567   -6.2301 C   0  0  0  0  0  0  0  0  0  0  0  0
  -25.4046  -10.6097   -5.4557 C   0  0  0  0  0  0  0  0  0  0  0  0
  -25.1251   -9.9720   -4.3097 N   0  0  0  0  0  0  0  0  0  0  0  0
  -25.9747   -9.0177   -3.9169 C   0  0  0  0  0  0  0  0  0  0  0  0
  -27.0758   -8.6354   -4.5673 N   0  0  0  0  0  0  0  0  0  0  0  0
  -24.5157  -11.5866   -5.9148 N   0  0  0  0  0  0  0  0  0  0  0  0
  -23.9980  -12.0557   -5.1792 H   0  0  0  0  0  0  0  0  0  0  0  0
  -23.6328  -11.1914   -7.0318 C   0  0  0  0  0  0  0  0  0  0  0  0
  -22.3625  -10.4615   -6.5631 C   0  0  0  0  0  0  0  0  0  0  0  0
  -22.6634   -9.1157   -6.1928 O   0  0  0  0  0  0  0  0  0  0  0  0
  -22.8828   -8.6503   -7.0175 H   0  0  0  0  0  0  0  0  0  0  0  0
  -29.7397   -4.8073   -4.4853 C   0  0  0  0  0  0  0  0  0  0  0  0
  -29.2101   -4.3686   -5.8291 C   0  0  0  0  0  0  0  0  0  0  0  0
  -28.9634   -3.0055   -6.0249 C   0  0  0  0  0  0  0  0  0  0  0  0
  -28.3953   -2.5497   -7.2132 C   0  0  0  0  0  0  0  0  0  0  0  0
  -28.0010   -3.4497   -8.1981 C   0  0  0  0  0  0  0  0  0  0  0  0
  -28.2399   -4.8124   -7.9918 C   0  0  0  0  0  0  0  0  0  0  0  0
  -28.9353   -5.2836   -6.8744 C   0  0  0  0  0  0  0  0  0  0  0  0
  -27.3757   -3.0749   -9.4106 N   0  0  0  0  0  0  0  0  0  0  0  0
  -27.5663   -1.8879  -10.0896 C   0  0  0  0  0  0  0  0  0  0  0  0
  -28.3072   -0.9705   -9.7621 O   0  0  0  0  0  0  0  0  0  0  0  0
  -26.8108   -3.7845   -9.8600 H   0  0  0  0  0  0  0  0  0  0  0  0
  -26.8276   -1.7293  -11.3726 C   0  0  0  0  0  0  0  0  0  0  0  0
  -27.4423   -1.8398  -12.6243 C   0  0  0  0  0  0  0  0  0  0  0  0
  -26.6717   -1.7362  -13.7852 C   0  0  0  0  0  0  0  0  0  0  0  0
  -25.2930   -1.5187  -13.7024 C   0  0  0  0  0  0  0  0  0  0  0  0
  -24.6643   -1.3965  -12.4559 C   0  0  0  0  0  0  0  0  0  0  0  0
  -25.4431   -1.5162  -11.2966 C   0  0  0  0  0  0  0  0  0  0  0  0
  -23.1810   -1.1429  -12.3386 C   0  0  0  0  0  0  0  0  0  0  0  0
  -22.8715    0.1615  -12.0959 F   0  0  0  0  0  0  0  0  0  0  0  0
  -22.6151   -1.8532  -11.3239 F   0  0  0  0  0  0  0  0  0  0  0  0
  -22.4976   -1.4855  -13.4644 F   0  0  0  0  0  0  0  0  0  0  0  0
 24 25  1  0  0  0
 25 26  1  0  0  0
 25 30  2  0  0  0
 26 27  2  0  0  0
 27 28  1  0  0  0
 28 31  1  0  0  0
 28 29  2  0  0  0
 31 32  1  0  0  0
 31 34  1  0  0  0
 32 33  2  0  0  0
 32 35  1  0  0  0
 35 36  1  0  0  0
 35 40  2  0  0  0
 36 37  2  0  0  0
 37 38  1  0  0  0
 38 39  2  0  0  0
 39 41  1  0  0  0
 39 40  1  0  0  0
 41 42  1  0  0  0
 41 43  1  0  0  0
 41 44  1  0  0  0
 29 30  1  0  0  0
 30  1  1  0  0  0
  1  3  1  0  0  0
  1  2  1  0  0  0
  3  4  2  0  0  0
  3 11  1  0  0  0
  4  5  1  0  0  0
  5  6  1  0  0  0
  5 10  2  0  0  0
  6  7  2  0  0  0
  7  8  1  0  0  0
  8  9  2  0  0  0
  9 10  1  0  0  0
 10 11  1  0  0  0
 11 12  1  0  0  0
 12 13  1  0  0  0
 12 17  2  0  0  0
 13 14  2  0  0  0
 14 18  1  0  0  0
 14 15  1  0  0  0
 18 20  1  0  0  0
 18 19  1  0  0  0
 20 21  1  0  0  0
 21 22  1  0  0  0
 22 23  1  0  0  0
 15 16  2  0  0  0
 16 17  1  0  0  0
M  END
> <minimizedAffinity>
-11.03955

$$$$
