CHEMBL206185


 31 34  0  0  0  0  0  0  0  0999 V2000
  -28.2523   -1.9756   -7.1104 C   0  0  0  0  0  0  0  0  0  0  0  0
  -27.6474   -0.8511   -6.5087 C   0  0  0  0  0  0  0  0  0  0  0  0
  -28.0385   -0.4031   -5.2467 C   0  0  0  0  0  0  0  0  0  0  0  0
  -29.0455   -1.0660   -4.5619 C   0  0  0  0  0  0  0  0  0  0  0  0
  -29.6246   -2.2059   -5.1173 C   0  0  0  0  0  0  0  0  0  0  0  0
  -29.2202   -2.7088   -6.3770 C   0  0  0  0  0  0  0  0  0  0  0  0
  -27.6034   -3.5775   -8.7001 O   0  0  0  0  0  0  0  0  0  0  0  0
  -27.7692   -2.3853   -8.4729 C   0  0  0  0  0  0  0  0  0  0  0  0
  -27.5184   -1.3578   -9.3823 N   0  0  0  0  0  0  0  0  0  0  0  0
  -27.7460   -0.4149   -9.0961 H   0  0  0  0  0  0  0  0  0  0  0  0
  -26.9961   -1.4901  -10.6935 C   0  0  0  0  0  0  0  0  0  0  0  0
  -27.7903   -1.5142  -11.8356 C   0  0  0  0  0  0  0  0  0  0  0  0
  -27.2127   -1.6043  -13.1050 C   0  0  0  0  0  0  0  0  0  0  0  0
  -25.8280   -1.6953  -13.2588 C   0  0  0  0  0  0  0  0  0  0  0  0
  -25.2412   -1.7540  -14.8786 Cl  0  0  0  0  0  0  0  0  0  0  0  0
  -25.0012   -1.7211  -12.1317 C   0  0  0  0  0  0  0  0  0  0  0  0
  -25.6078   -1.6025  -10.8517 C   0  0  0  0  0  0  0  0  0  0  0  0
  -23.5029   -1.8715  -12.1879 C   0  0  0  0  0  0  0  0  0  0  0  0
  -22.8133   -0.9037  -12.8438 F   0  0  0  0  0  0  0  0  0  0  0  0
  -22.9538   -1.9296  -10.9402 F   0  0  0  0  0  0  0  0  0  0  0  0
  -23.1409   -3.0413  -12.7930 F   0  0  0  0  0  0  0  0  0  0  0  0
  -29.8111   -4.0502   -6.7900 C   0  0  0  0  0  0  0  0  0  0  0  0
  -29.6456   -5.1127   -5.7772 N   0  0  0  0  0  0  0  0  0  0  0  0
  -30.6152   -5.3126   -4.7862 C   0  0  0  0  0  0  0  0  0  0  0  0
  -30.6038   -6.3022   -3.8776 C   0  0  0  0  0  0  0  0  0  0  0  0
  -29.4742   -7.2350   -3.9614 C   0  0  0  0  0  0  0  0  0  0  0  0
  -29.1613   -8.2666   -3.2427 N   0  0  0  0  0  0  0  0  0  0  0  0
  -27.9948   -8.7244   -3.8472 C   0  0  0  0  0  0  0  0  0  0  0  0
  -27.5584   -8.0691   -4.8885 N   0  0  0  0  0  0  0  0  0  0  0  0
  -28.4742   -7.0676   -5.0173 C   0  0  0  0  0  0  0  0  0  0  0  0
  -28.6028   -6.0459   -5.8653 C   0  0  0  0  0  0  0  0  0  0  0  0
  7  8  2  0  0  0
  8  9  1  0  0  0
  8  1  1  0  0  0
  9 11  1  0  0  0
  9 10  1  0  0  0
 11 12  1  0  0  0
 11 17  2  0  0  0
 12 13  2  0  0  0
 13 14  1  0  0  0
 14 15  1  0  0  0
 14 16  2  0  0  0
 16 18  1  0  0  0
 16 17  1  0  0  0
 18 19  1  0  0  0
 18 20  1  0  0  0
 18 21  1  0  0  0
  1  2  1  0  0  0
  1  6  2  0  0  0
  2  3  2  0  0  0
  3  4  1  0  0  0
  4  5  2  0  0  0
  5  6  1  0  0  0
  6 22  1  0  0  0
 22 23  1  0  0  0
 23 24  1  0  0  0
 23 31  1  0  0  0
 24 25  2  0  0  0
 25 26  1  0  0  0
 26 27  2  0  0  0
 26 30  1  0  0  0
 27 28  1  0  0  0
 28 29  2  0  0  0
 29 30  1  0  0  0
 30 31  2  0  0  0
M  END
> <minimizedAffinity>
-11.07691

$$$$
