CHEMBL3648107


 32 33  0  0  0  0  0  0  0  0999 V2000
  -27.4744   -9.4080   -5.8195 C   0  0  0  0  0  0  0  0  0  0  0  0
  -28.3603   -8.3840   -5.7369 N   0  0  0  0  0  0  0  0  0  0  0  0
  -29.0656   -8.2541   -4.6014 C   0  0  0  0  0  0  0  0  0  0  0  0
  -29.0059   -9.1430   -3.5988 N   0  0  0  0  0  0  0  0  0  0  0  0
  -28.1029  -10.1249   -3.6807 C   0  0  0  0  0  0  0  0  0  0  0  0
  -27.2670  -10.2738   -4.7507 C   0  0  0  0  0  0  0  0  0  0  0  0
  -25.9476  -11.6254   -4.7217 Br  0  0  0  0  0  0  0  0  0  0  0  0
  -26.6870   -9.5688   -6.9794 N   0  0  0  0  0  0  0  0  0  0  0  0
  -26.4508   -8.6254   -7.2866 H   0  0  0  0  0  0  0  0  0  0  0  0
  -26.1786  -11.3406   -8.6267 C   0  0  0  0  0  0  0  0  0  0  0  0
  -27.2351  -10.3587   -8.1026 C   0  0  0  0  0  0  0  0  0  0  0  0
  -27.7272   -9.3695   -9.2266 C   0  0  0  0  0  0  0  0  0  0  0  0
  -27.1405   -9.6607  -10.6176 C   0  0  0  0  0  0  0  0  0  0  0  0
  -29.2580   -9.3546   -9.3288 C   0  0  0  0  0  0  0  0  0  0  0  0
  -27.3390   -8.0312   -8.8539 O   0  0  0  0  0  0  0  0  0  0  0  0
  -26.4180   -7.9061   -9.1397 H   0  0  0  0  0  0  0  0  0  0  0  0
  -29.8931   -7.1362   -4.4533 N   0  0  0  0  0  0  0  0  0  0  0  0
  -30.8127   -7.3831   -4.1212 H   0  0  0  0  0  0  0  0  0  0  0  0
  -29.5949   -5.7827   -4.6826 C   0  0  0  0  0  0  0  0  0  0  0  0
  -30.1255   -5.0744   -5.7747 C   0  0  0  0  0  0  0  0  0  0  0  0
  -29.6665   -3.8069   -6.1332 C   0  0  0  0  0  0  0  0  0  0  0  0
  -28.6648   -3.2092   -5.3764 C   0  0  0  0  0  0  0  0  0  0  0  0
  -28.1643   -3.8542   -4.2412 C   0  0  0  0  0  0  0  0  0  0  0  0
  -28.6268   -5.1362   -3.9031 C   0  0  0  0  0  0  0  0  0  0  0  0
  -28.0404   -1.6052   -5.8492 S   0  0  0  0  0  0  0  0  0  0  0  0
  -26.8094   -1.3287   -4.9661 N   0  0  0  0  0  0  0  0  0  0  0  0
  -27.9956   -1.5955   -7.3004 O   0  0  0  0  0  0  0  0  0  0  0  0
  -26.0447   -1.9673   -5.1977 H   0  0  0  0  0  0  0  0  0  0  0  0
  -29.3395   -0.4947   -5.3584 C   0  0  0  0  0  0  0  0  0  0  0  0
  -28.7935    0.9038   -5.1439 C   0  0  0  0  0  0  0  0  0  0  0  0
  -28.0214    1.3069   -6.2740 O   0  0  0  0  0  0  0  0  0  0  0  0
  -27.1547    0.8694   -6.2135 H   0  0  0  0  0  0  0  0  0  0  0  0
 10 11  1  0  0  0
 11  8  1  0  0  0
 11 12  1  0  0  0
  8  1  1  0  0  0
  8  9  1  0  0  0
  1  2  1  0  0  0
  1  6  2  0  0  0
  2  3  2  0  0  0
  3 17  1  0  0  0
  3  4  1  0  0  0
 17 19  1  0  0  0
 17 18  1  0  0  0
 19 20  1  0  0  0
 19 24  2  0  0  0
 20 21  2  0  0  0
 21 22  1  0  0  0
 22 25  1  0  0  0
 22 23  2  0  0  0
 25 26  2  0  0  0
 25 27  2  0  0  0
 25 29  1  0  0  0
 26 28  1  0  0  0
 29 30  1  0  0  0
 30 31  1  0  0  0
 31 32  1  0  0  0
 23 24  1  0  0  0
  4  5  2  0  0  0
  5  6  1  0  0  0
  6  7  1  0  0  0
 12 13  1  0  0  0
 12 14  1  0  0  0
 12 15  1  0  0  0
 15 16  1  0  0  0
M  END
> <minimizedAffinity>
-7.33493

$$$$
