CHEMBL3676355


 38 40  0  0  0  0  0  0  0  0999 V2000
  -27.6955   -8.6844   -8.2407 C   0  0  0  0  0  0  0  0  0  0  0  0
  -27.5043   -9.9208   -7.6195 C   0  0  0  0  0  0  0  0  0  0  0  0
  -27.9878  -10.1481   -6.3194 C   0  0  0  0  0  0  0  0  0  0  0  0
  -27.7655  -11.3226   -5.5820 C   0  0  0  0  0  0  0  0  0  0  0  0
  -28.2984  -11.5149   -4.3619 N   0  0  0  0  0  0  0  0  0  0  0  0
  -29.0290  -10.5066   -3.8605 C   0  0  0  0  0  0  0  0  0  0  0  0
  -29.2549   -9.3326   -4.4543 N   0  0  0  0  0  0  0  0  0  0  0  0
  -28.7442   -9.1573   -5.6752 C   0  0  0  0  0  0  0  0  0  0  0  0
  -28.9715   -7.9493   -6.3392 C   0  0  0  0  0  0  0  0  0  0  0  0
  -28.4847   -7.6985   -7.6282 C   0  0  0  0  0  0  0  0  0  0  0  0
  -27.0698   -9.1659  -10.5536 C   0  0  0  0  0  0  0  0  0  0  0  0
  -26.6254   -8.7452  -11.6156 O   0  0  0  0  0  0  0  0  0  0  0  0
  -26.9532   -8.4139   -9.4031 N   0  0  0  0  0  0  0  0  0  0  0  0
  -26.8833   -7.4386   -9.6719 H   0  0  0  0  0  0  0  0  0  0  0  0
  -28.8949  -10.6402  -11.2223 C   0  0  0  0  0  0  0  0  0  0  0  0
  -27.8134  -10.4495  -10.4577 C   0  0  0  0  0  0  0  0  0  0  0  0
  -26.9088  -12.3420   -6.1121 N   0  0  0  0  0  0  0  0  0  0  0  0
  -27.3422  -12.7310   -6.9489 H   0  0  0  0  0  0  0  0  0  0  0  0
  -25.5194  -12.1334   -6.3131 C   0  0  0  0  0  0  0  0  0  0  0  0
  -24.6913  -11.8577   -5.2179 C   0  0  0  0  0  0  0  0  0  0  0  0
  -23.3615  -11.4759   -5.4036 C   0  0  0  0  0  0  0  0  0  0  0  0
  -22.4484  -11.0826   -3.9918 Cl  0  0  0  0  0  0  0  0  0  0  0  0
  -22.8372  -11.3971   -6.6981 C   0  0  0  0  0  0  0  0  0  0  0  0
  -21.0971  -10.7235   -7.0504 Br  0  0  0  0  0  0  0  0  0  0  0  0
  -23.6204  -11.7749   -7.7930 C   0  0  0  0  0  0  0  0  0  0  0  0
  -24.9491  -12.1433   -7.5910 C   0  0  0  0  0  0  0  0  0  0  0  0
  -25.7037  -12.4654   -8.6537 F   0  0  0  0  0  0  0  0  0  0  0  0
  -28.8285   -6.4739   -8.1500 O   0  0  0  0  0  0  0  0  0  0  0  0
  -28.3679   -5.3357   -7.4117 C   0  0  0  0  0  0  0  0  0  0  0  0
  -29.2555   -4.1034   -7.6393 C   0  0  0  0  0  0  0  0  0  0  0  0
  -28.8655   -3.3607   -8.8304 N   0  0  0  0  0  0  0  0  0  0  0  0
  -27.9544   -2.3235   -8.7735 C   0  0  0  0  0  0  0  0  0  0  0  0
  -27.2790   -2.0825   -7.7746 O   0  0  0  0  0  0  0  0  0  0  0  0
  -29.4668   -3.3600   -9.6519 H   0  0  0  0  0  0  0  0  0  0  0  0
  -27.8242   -1.4975  -10.0646 C   0  0  0  0  0  0  0  0  0  0  0  0
  -26.8253   -2.0737  -11.0031 N   0  0  0  0  0  0  0  0  0  0  0  0
  -27.2839   -1.9755  -12.3946 C   0  0  0  0  0  0  0  0  0  0  0  0
  -25.5576   -1.3334  -10.8794 C   0  0  0  0  0  0  0  0  0  0  0  0
 15 16  2  0  0  0
 16 11  1  0  0  0
 11 12  2  0  0  0
 11 13  1  0  0  0
 13  1  1  0  0  0
 13 14  1  0  0  0
  1  2  1  0  0  0
  1 10  2  0  0  0
  2  3  2  0  0  0
  3  4  1  0  0  0
  3  8  1  0  0  0
  4 17  1  0  0  0
  4  5  2  0  0  0
 17 19  1  0  0  0
 17 18  1  0  0  0
 19 20  1  0  0  0
 19 26  2  0  0  0
 20 21  2  0  0  0
 21 22  1  0  0  0
 21 23  1  0  0  0
 23 24  1  0  0  0
 23 25  2  0  0  0
 25 26  1  0  0  0
 26 27  1  0  0  0
  5  6  1  0  0  0
  6  7  2  0  0  0
  7  8  1  0  0  0
  8  9  2  0  0  0
  9 10  1  0  0  0
 10 28  1  0  0  0
 28 29  1  0  0  0
 29 30  1  0  0  0
 30 31  1  0  0  0
 31 32  1  0  0  0
 31 34  1  0  0  0
 32 33  2  0  0  0
 32 35  1  0  0  0
 35 36  1  0  0  0
 36 37  1  0  0  0
 36 38  1  0  0  0
M  END
> <minimizedAffinity>
-7.42663

$$$$
