CHEMBL4751362


 29 33  0  0  0  0  0  0  0  0999 V2000
  -28.6028   -9.2342   -7.2613 C   0  0  0  0  0  0  0  0  0  0  0  0
  -28.0161   -8.5867   -6.3142 N   0  0  0  0  0  0  0  0  0  0  0  0
  -28.5072   -7.3209   -6.1071 C   0  0  0  0  0  0  0  0  0  0  0  0
  -28.1101   -6.5818   -5.2207 O   0  0  0  0  0  0  0  0  0  0  0  0
  -29.5996   -6.9910   -7.0768 C   0  0  0  0  0  0  0  0  0  0  0  0
  -30.2682   -5.8344   -7.1962 C   0  0  0  0  0  0  0  0  0  0  0  0
  -29.8783   -8.3587   -8.0936 S   0  0  0  0  0  0  0  0  0  0  0  0
  -29.9601   -4.6324   -6.3928 C   0  0  0  0  0  0  0  0  0  0  0  0
  -30.5424   -4.5084   -5.0944 C   0  0  0  0  0  0  0  0  0  0  0  0
  -31.3070   -5.5256   -4.4667 C   0  0  0  0  0  0  0  0  0  0  0  0
  -31.9008   -5.3394   -3.2172 C   0  0  0  0  0  0  0  0  0  0  0  0
  -31.7430   -4.1306   -2.5544 C   0  0  0  0  0  0  0  0  0  0  0  0
  -30.9747   -3.1221   -3.1320 C   0  0  0  0  0  0  0  0  0  0  0  0
  -30.3663   -3.2991   -4.3883 C   0  0  0  0  0  0  0  0  0  0  0  0
  -29.5947   -2.2722   -4.9494 C   0  0  0  0  0  0  0  0  0  0  0  0
  -28.9871   -2.4012   -6.2063 C   0  0  0  0  0  0  0  0  0  0  0  0
  -28.2196   -1.3463   -6.7298 C   0  0  0  0  0  0  0  0  0  0  0  0
  -27.6178   -1.4452   -7.9831 C   0  0  0  0  0  0  0  0  0  0  0  0
  -27.7755   -2.6032   -8.7295 C   0  0  0  0  0  0  0  0  0  0  0  0
  -28.5361   -3.6587   -8.2224 C   0  0  0  0  0  0  0  0  0  0  0  0
  -29.1602   -3.5894   -6.9517 C   0  0  0  0  0  0  0  0  0  0  0  0
  -28.3818  -10.5057   -7.6981 N   0  0  0  0  0  0  0  0  0  0  0  0
  -28.9472  -11.2266   -7.2689 H   0  0  0  0  0  0  0  0  0  0  0  0
  -23.8474  -12.4039   -8.4639 C   0  0  0  0  0  0  0  0  0  0  0  0
  -25.1780  -11.7747   -8.4760 C   0  0  0  0  0  0  0  0  0  0  0  0
  -26.1243  -11.5253   -7.5161 C   0  0  0  0  0  0  0  0  0  0  0  0
  -27.1926  -10.9029   -8.2088 C   0  0  0  0  0  0  0  0  0  0  0  0
  -26.8797  -10.7516   -9.5020 N   0  0  0  0  0  0  0  0  0  0  0  0
  -25.6277  -11.3128   -9.6699 O   0  0  0  0  0  0  0  0  0  0  0  0
 24 25  1  0  0  0
 25 26  2  0  0  0
 25 29  1  0  0  0
 26 27  1  0  0  0
 27 22  1  0  0  0
 27 28  2  0  0  0
 22  1  1  0  0  0
 22 23  1  0  0  0
  1  2  2  0  0  0
  1  7  1  0  0  0
  2  3  1  0  0  0
  3  4  2  0  0  0
  3  5  1  0  0  0
  5  6  2  0  0  0
  5  7  1  0  0  0
  6  8  1  0  0  0
  8  9  1  0  0  0
  8 21  2  0  0  0
  9 10  1  0  0  0
  9 14  2  0  0  0
 10 11  2  0  0  0
 11 12  1  0  0  0
 12 13  2  0  0  0
 13 14  1  0  0  0
 14 15  1  0  0  0
 15 16  2  0  0  0
 16 17  1  0  0  0
 16 21  1  0  0  0
 17 18  2  0  0  0
 18 19  1  0  0  0
 19 20  2  0  0  0
 20 21  1  0  0  0
 28 29  1  0  0  0
M  END
> <minimizedAffinity>
-9.04122

$$$$
