CHEMBL98798


 22 24  0  0  0  0  0  0  0  0999 V2000
  -29.8625   -9.4701   -6.6784 C   0  0  0  0  0  0  0  0  0  0  0  0
  -28.8685   -9.0337   -5.7968 C   0  0  0  0  0  0  0  0  0  0  0  0
  -28.7118   -7.7026   -5.4589 C   0  0  0  0  0  0  0  0  0  0  0  0
  -27.6991   -7.3964   -4.6437 N   0  0  0  0  0  0  0  0  0  0  0  0
  -27.5431   -6.1100   -4.3283 C   0  0  0  0  0  0  0  0  0  0  0  0
  -28.3076   -5.1101   -4.7535 N   0  0  0  0  0  0  0  0  0  0  0  0
  -29.2960   -5.4377   -5.6152 C   0  0  0  0  0  0  0  0  0  0  0  0
  -29.5849   -6.7535   -5.9997 C   0  0  0  0  0  0  0  0  0  0  0  0
  -30.6331   -7.1844   -6.8530 C   0  0  0  0  0  0  0  0  0  0  0  0
  -30.7960   -8.5438   -7.1600 C   0  0  0  0  0  0  0  0  0  0  0  0
  -29.2394  -11.0811   -8.2897 C   0  0  0  0  0  0  0  0  0  0  0  0
  -29.9446  -10.7781   -7.0844 O   0  0  0  0  0  0  0  0  0  0  0  0
  -31.8619   -8.8138   -7.9749 O   0  0  0  0  0  0  0  0  0  0  0  0
  -33.1194   -8.9921   -7.3226 C   0  0  0  0  0  0  0  0  0  0  0  0
  -30.0549   -4.3972   -6.1605 O   0  0  0  0  0  0  0  0  0  0  0  0
  -29.3427   -3.3408   -6.6975 C   0  0  0  0  0  0  0  0  0  0  0  0
  -28.7301   -3.4257   -7.9568 C   0  0  0  0  0  0  0  0  0  0  0  0
  -27.9338   -2.3799   -8.4227 C   0  0  0  0  0  0  0  0  0  0  0  0
  -27.8004   -1.2193   -7.6634 C   0  0  0  0  0  0  0  0  0  0  0  0
  -28.4809   -1.1058   -6.4494 C   0  0  0  0  0  0  0  0  0  0  0  0
  -28.3253    0.4925   -5.4494 Br  0  0  0  0  0  0  0  0  0  0  0  0
  -29.2583   -2.1587   -5.9619 C   0  0  0  0  0  0  0  0  0  0  0  0
 11 12  1  0  0  0
 12  1  1  0  0  0
  1  2  1  0  0  0
  1 10  2  0  0  0
  2  3  2  0  0  0
  3  4  1  0  0  0
  3  8  1  0  0  0
  4  5  2  0  0  0
  5  6  1  0  0  0
  6  7  2  0  0  0
  7 15  1  0  0  0
  7  8  1  0  0  0
 15 16  1  0  0  0
 16 17  1  0  0  0
 16 22  2  0  0  0
 17 18  2  0  0  0
 18 19  1  0  0  0
 19 20  2  0  0  0
 20 21  1  0  0  0
 20 22  1  0  0  0
  8  9  2  0  0  0
  9 10  1  0  0  0
 10 13  1  0  0  0
 13 14  1  0  0  0
M  END
> <minimizedAffinity>
-6.80103

$$$$
