CHEMBL3656119


 43 46  0  0  0  0  0  0  0  0999 V2000
  -25.5025   -1.5758  -12.3995 C   0  0  0  0  0  0  0  0  0  0  0  0
  -25.5729   -1.2315  -13.7510 C   0  0  0  0  0  0  0  0  0  0  0  0
  -24.4262   -0.9276  -14.4808 C   0  0  0  0  0  0  0  0  0  0  0  0
  -23.1906   -0.8595  -13.8446 C   0  0  0  0  0  0  0  0  0  0  0  0
  -23.1031   -1.1853  -12.4901 C   0  0  0  0  0  0  0  0  0  0  0  0
  -24.2541   -1.5374  -11.7677 C   0  0  0  0  0  0  0  0  0  0  0  0
  -25.8060   -1.6248   -9.5305 O   0  0  0  0  0  0  0  0  0  0  0  0
  -26.7190   -1.9698  -10.2687 C   0  0  0  0  0  0  0  0  0  0  0  0
  -26.6306   -2.0010  -11.6516 N   0  0  0  0  0  0  0  0  0  0  0  0
  -27.9667   -2.3509   -9.8063 N   0  0  0  0  0  0  0  0  0  0  0  0
  -27.4785   -2.1616  -12.1709 H   0  0  0  0  0  0  0  0  0  0  0  0
  -28.6058   -2.7430  -10.4800 H   0  0  0  0  0  0  0  0  0  0  0  0
  -28.3942   -2.3018   -8.4573 C   0  0  0  0  0  0  0  0  0  0  0  0
  -28.8232   -3.4099   -7.7272 C   0  0  0  0  0  0  0  0  0  0  0  0
  -29.2360   -3.2877   -6.4048 C   0  0  0  0  0  0  0  0  0  0  0  0
  -29.2134   -2.0486   -5.7634 C   0  0  0  0  0  0  0  0  0  0  0  0
  -29.7728   -2.0202   -4.1333 Cl  0  0  0  0  0  0  0  0  0  0  0  0
  -28.7562   -0.9202   -6.4480 C   0  0  0  0  0  0  0  0  0  0  0  0
  -28.3649   -1.0609   -7.8045 C   0  0  0  0  0  0  0  0  0  0  0  0
  -28.6288    0.4474   -5.8362 C   0  0  0  0  0  0  0  0  0  0  0  0
  -29.7074    0.9275   -5.1676 F   0  0  0  0  0  0  0  0  0  0  0  0
  -27.5971    0.4968   -4.9413 F   0  0  0  0  0  0  0  0  0  0  0  0
  -28.3296    1.3944   -6.7746 F   0  0  0  0  0  0  0  0  0  0  0  0
  -22.0171   -0.5263  -14.4842 O   0  0  0  0  0  0  0  0  0  0  0  0
  -21.5807    0.7816  -14.4498 C   0  0  0  0  0  0  0  0  0  0  0  0
  -22.3492    1.8432  -13.9769 C   0  0  0  0  0  0  0  0  0  0  0  0
  -21.8086    3.1134  -14.0307 C   0  0  0  0  0  0  0  0  0  0  0  0
  -20.5593    3.3773  -14.4648 N   0  0  0  0  0  0  0  0  0  0  0  0
  -19.8093    2.3196  -14.8643 C   0  0  0  0  0  0  0  0  0  0  0  0
  -20.2758    1.0134  -14.8722 C   0  0  0  0  0  0  0  0  0  0  0  0
  -18.4603    2.6822  -15.2818 C   0  0  0  0  0  0  0  0  0  0  0  0
  -17.3255    1.9322  -15.5352 C   0  0  0  0  0  0  0  0  0  0  0  0
  -16.2564    2.8171  -15.8709 C   0  0  0  0  0  0  0  0  0  0  0  0
  -16.7898    4.0931  -15.8389 C   0  0  0  0  0  0  0  0  0  0  0  0
  -18.1068    3.9991  -15.4795 N   0  0  0  0  0  0  0  0  0  0  0  0
  -18.7551    4.7666  -15.3462 H   0  0  0  0  0  0  0  0  0  0  0  0
  -14.8722    2.4483  -16.1298 C   0  0  0  0  0  0  0  0  0  0  0  0
  -14.5331    1.7594  -17.0830 O   0  0  0  0  0  0  0  0  0  0  0  0
  -14.0187    2.8940  -15.1627 O   0  0  0  0  0  0  0  0  0  0  0  0
  -12.9859    1.9690  -14.7823 C   0  0  0  0  0  0  0  0  0  0  0  0
  -13.4112    1.0332  -13.6552 C   0  0  0  0  0  0  0  0  0  0  0  0
  -13.2702    1.6755  -12.3911 O   0  0  0  0  0  0  0  0  0  0  0  0
  -12.3236    1.8785  -12.2864 H   0  0  0  0  0  0  0  0  0  0  0  0
  7  8  2  0  0  0
  8  9  1  0  0  0
  8 10  1  0  0  0
  9  1  1  0  0  0
  9 11  1  0  0  0
  1  2  1  0  0  0
  1  6  2  0  0  0
  2  3  2  0  0  0
  3  4  1  0  0  0
  4 24  1  0  0  0
  4  5  2  0  0  0
 24 25  1  0  0  0
 25 26  1  0  0  0
 25 30  2  0  0  0
 26 27  2  0  0  0
 27 28  1  0  0  0
 28 29  2  0  0  0
 29 31  1  0  0  0
 29 30  1  0  0  0
 31 32  2  0  0  0
 31 35  1  0  0  0
 32 33  1  0  0  0
 33 37  1  0  0  0
 33 34  2  0  0  0
 37 38  2  0  0  0
 37 39  1  0  0  0
 39 40  1  0  0  0
 40 41  1  0  0  0
 41 42  1  0  0  0
 42 43  1  0  0  0
 34 35  1  0  0  0
 35 36  1  0  0  0
  5  6  1  0  0  0
 10 13  1  0  0  0
 10 12  1  0  0  0
 13 14  1  0  0  0
 13 19  2  0  0  0
 14 15  2  0  0  0
 15 16  1  0  0  0
 16 17  1  0  0  0
 16 18  2  0  0  0
 18 20  1  0  0  0
 18 19  1  0  0  0
 20 21  1  0  0  0
 20 22  1  0  0  0
 20 23  1  0  0  0
M  END
> <minimizedAffinity>
-11.41987

$$$$
