CHEMBL1271559


 23 25  0  0  0  0  0  0  0  0999 V2000
  -28.4243   -6.6545   -5.3018 O   0  0  0  0  0  0  0  0  0  0  0  0
  -29.5074   -6.4819   -5.8564 C   0  0  0  0  0  0  0  0  0  0  0  0
  -30.1749   -5.2816   -5.9972 N   0  0  0  0  0  0  0  0  0  0  0  0
  -31.1570   -5.2774   -6.2609 H   0  0  0  0  0  0  0  0  0  0  0  0
  -29.7061   -4.0209   -5.5227 C   0  0  0  0  0  0  0  0  0  0  0  0
  -29.9450   -3.5923   -4.2090 C   0  0  0  0  0  0  0  0  0  0  0  0
  -29.5467   -2.3295   -3.7865 C   0  0  0  0  0  0  0  0  0  0  0  0
  -28.8957   -1.4853   -4.6734 C   0  0  0  0  0  0  0  0  0  0  0  0
  -28.6182   -1.9117   -5.9805 C   0  0  0  0  0  0  0  0  0  0  0  0
  -27.9635   -1.0585   -6.8764 C   0  0  0  0  0  0  0  0  0  0  0  0
  -27.6922   -1.4879   -8.1667 C   0  0  0  0  0  0  0  0  0  0  0  0
  -28.0850   -2.7666   -8.5177 C   0  0  0  0  0  0  0  0  0  0  0  0
  -28.7313   -3.6194   -7.6868 N   0  0  0  0  0  0  0  0  0  0  0  0
  -29.0042   -3.2004   -6.4246 C   0  0  0  0  0  0  0  0  0  0  0  0
  -30.1861   -7.6988   -6.3670 C   0  0  0  0  0  0  0  0  0  0  0  0
  -31.4786   -7.5445   -6.8967 C   0  0  0  0  0  0  0  0  0  0  0  0
  -32.2172   -8.6550   -7.3067 C   0  0  0  0  0  0  0  0  0  0  0  0
  -31.6602   -9.9315   -7.1738 C   0  0  0  0  0  0  0  0  0  0  0  0
  -30.3700  -10.0971   -6.6414 C   0  0  0  0  0  0  0  0  0  0  0  0
  -29.6300   -8.9762   -6.2392 C   0  0  0  0  0  0  0  0  0  0  0  0
  -32.4440  -11.1056   -7.5806 N   0  0  0  0  0  0  0  0  0  0  0  0
  -33.4488  -11.3904   -6.9130 O   0  0  0  0  0  0  0  0  0  0  0  0
  -32.0547  -11.7413   -8.5714 O   0  0  0  0  0  0  0  0  0  0  0  0
  1  2  2  0  0  0
  2  3  1  0  0  0
  2 15  1  0  0  0
  3  5  1  0  0  0
  3  4  1  0  0  0
  5  6  1  0  0  0
  5 14  2  0  0  0
  6  7  2  0  0  0
  7  8  1  0  0  0
  8  9  2  0  0  0
  9 10  1  0  0  0
  9 14  1  0  0  0
 10 11  2  0  0  0
 11 12  1  0  0  0
 12 13  2  0  0  0
 13 14  1  0  0  0
 15 16  1  0  0  0
 15 20  2  0  0  0
 16 17  2  0  0  0
 17 18  1  0  0  0
 18 21  1  0  0  0
 18 19  2  0  0  0
 21 22  2  0  0  0
 21 23  1  0  0  0
 19 20  1  0  0  0
M  CHG 1  21   1
M  CHG 1  23  -1
M  END
> <minimizedAffinity>
-7.84390

$$$$
