CHEMBL3908326


 40 45  0  0  0  0  0  0  0  0999 V2000
  -28.7384   -8.2138   -5.7284 C   0  0  0  0  0  0  0  0  0  0  0  0
  -29.1223   -7.4545   -4.6339 C   0  0  0  0  0  0  0  0  0  0  0  0
  -29.6287   -6.2008   -4.8240 C   0  0  0  0  0  0  0  0  0  0  0  0
  -29.5492   -5.5841   -6.0400 C   0  0  0  0  0  0  0  0  0  0  0  0
  -30.3156   -4.4954   -6.1236 N   0  0  0  0  0  0  0  0  0  0  0  0
  -30.0644   -3.6651   -7.1335 C   0  0  0  0  0  0  0  0  0  0  0  0
  -28.9700   -3.8431   -7.9586 C   0  0  0  0  0  0  0  0  0  0  0  0
  -28.3339   -5.0720   -8.0145 N   0  0  0  0  0  0  0  0  0  0  0  0
  -28.6982   -6.0546   -7.0548 C   0  0  0  0  0  0  0  0  0  0  0  0
  -28.4079   -7.4806   -6.9143 C   0  0  0  0  0  0  0  0  0  0  0  0
  -28.4031   -2.5541   -8.3912 C   0  0  0  0  0  0  0  0  0  0  0  0
  -27.4924   -1.6537   -7.7936 C   0  0  0  0  0  0  0  0  0  0  0  0
  -26.9046   -0.8273   -8.6782 N   0  0  0  0  0  0  0  0  0  0  0  0
  -27.3701   -1.2324   -9.8809 N   0  0  0  0  0  0  0  0  0  0  0  0
  -28.2932   -2.2342   -9.7485 C   0  0  0  0  0  0  0  0  0  0  0  0
  -27.0290   -0.5029  -11.0970 C   0  0  0  0  0  0  0  0  0  0  0  0
  -25.7372   -0.8524  -11.9099 C   0  0  0  0  0  0  0  0  0  0  0  0
  -24.6659    0.2491  -11.8087 C   0  0  0  0  0  0  0  0  0  0  0  0
  -23.4168   -0.0466  -12.6386 C   0  0  0  0  0  0  0  0  0  0  0  0
  -22.8265   -1.3553  -12.3523 N   0  0  0  0  0  0  0  0  0  0  0  0
  -23.8205   -2.4296  -12.4054 C   0  0  0  0  0  0  0  0  0  0  0  0
  -25.0357   -2.1644  -11.4828 C   0  0  0  0  0  0  0  0  0  0  0  0
  -22.3827   -1.3448  -11.4363 H   0  0  0  0  0  0  0  0  0  0  0  0
  -26.1216   -1.1847  -13.2691 O   0  0  0  0  0  0  0  0  0  0  0  0
  -27.2166   -2.0390  -13.5192 C   0  0  0  0  0  0  0  0  0  0  0  0
  -28.9728   -9.6241   -5.5655 N   0  0  0  0  0  0  0  0  0  0  0  0
  -29.2660  -11.9978   -8.5095 C   0  0  0  0  0  0  0  0  0  0  0  0
  -30.5610  -12.4658   -8.3375 C   0  0  0  0  0  0  0  0  0  0  0  0
  -31.3186  -11.9976   -7.2701 C   0  0  0  0  0  0  0  0  0  0  0  0
  -30.8019  -11.0215   -6.4030 C   0  0  0  0  0  0  0  0  0  0  0  0
  -29.4752  -10.5826   -6.4810 C   0  0  0  0  0  0  0  0  0  0  0  0
  -28.7184  -11.1051   -7.5604 C   0  0  0  0  0  0  0  0  0  0  0  0
  -27.2130  -11.6679   -9.6629 C   0  0  0  0  0  0  0  0  0  0  0  0
  -28.4554  -12.3708   -9.5570 O   0  0  0  0  0  0  0  0  0  0  0  0
  -32.5973  -12.4156   -7.0053 O   0  0  0  0  0  0  0  0  0  0  0  0
  -33.2858  -11.6238   -6.0384 C   0  0  0  0  0  0  0  0  0  0  0  0
  -28.9436   -9.9583   -4.0948 C   0  0  0  0  0  0  0  0  0  0  0  0
  -27.7029  -10.6638   -3.5437 C   0  0  0  0  0  0  0  0  0  0  0  0
  -26.4730  -10.6242   -4.4433 C   0  0  0  0  0  0  0  0  0  0  0  0
  -27.1078  -11.9399   -4.1306 C   0  0  0  0  0  0  0  0  0  0  0  0
 33 34  1  0  0  0
 34 27  1  0  0  0
 27 28  1  0  0  0
 27 32  2  0  0  0
 28 29  2  0  0  0
 29 35  1  0  0  0
 29 30  1  0  0  0
 35 36  1  0  0  0
 30 31  2  0  0  0
 31 26  1  0  0  0
 31 32  1  0  0  0
 26 37  1  0  0  0
 26  1  1  0  0  0
 37 38  1  0  0  0
 38 39  1  0  0  0
 38 40  1  0  0  0
 39 40  1  0  0  0
  1  2  1  0  0  0
  1 10  2  0  0  0
  2  3  2  0  0  0
  3  4  1  0  0  0
  4  5  1  0  0  0
  4  9  2  0  0  0
  5  6  2  0  0  0
  6  7  1  0  0  0
  7 11  1  0  0  0
  7  8  2  0  0  0
 11 12  1  0  0  0
 11 15  2  0  0  0
 12 13  2  0  0  0
 13 14  1  0  0  0
 14 16  1  0  0  0
 14 15  1  0  0  0
 16 17  1  0  0  0
 17 24  1  0  0  0
 17 18  1  0  0  0
 17 22  1  0  0  0
 24 25  1  0  0  0
 18 19  1  0  0  0
 19 20  1  0  0  0
 20 21  1  0  0  0
 20 23  1  0  0  0
 21 22  1  0  0  0
  8  9  1  0  0  0
  9 10  1  0  0  0
M  END
> <minimizedAffinity>
-6.53499

$$$$
