CHEMBL612137


 41 44  0  0  0  0  0  0  0  0999 V2000
  -15.1110   -2.8161  -13.4938 C   0  0  0  0  0  0  0  0  0  0  0  0
  -13.9385   -3.3069  -12.9037 C   0  0  0  0  0  0  0  0  0  0  0  0
  -13.8745   -4.5964  -12.3603 C   0  0  0  0  0  0  0  0  0  0  0  0
  -15.0027   -5.4143  -12.3554 C   0  0  0  0  0  0  0  0  0  0  0  0
  -16.2021   -4.8968  -12.8378 C   0  0  0  0  0  0  0  0  0  0  0  0
  -17.3442   -5.5934  -12.7309 F   0  0  0  0  0  0  0  0  0  0  0  0
  -16.2561   -3.6208  -13.4058 C   0  0  0  0  0  0  0  0  0  0  0  0
  -15.2347   -1.5111  -14.0140 N   0  0  0  0  0  0  0  0  0  0  0  0
  -15.7338   -1.5529  -14.9075 H   0  0  0  0  0  0  0  0  0  0  0  0
  -13.9817   -0.6915  -14.1632 C   0  0  0  0  0  0  0  0  0  0  0  0
  -13.3704   -0.7503  -15.5949 C   0  0  0  0  0  0  0  0  0  0  0  0
  -13.2838   -2.0150  -16.0711 F   0  0  0  0  0  0  0  0  0  0  0  0
  -14.0855   -0.0214  -16.4775 F   0  0  0  0  0  0  0  0  0  0  0  0
  -12.1024   -0.2646  -15.6013 F   0  0  0  0  0  0  0  0  0  0  0  0
  -14.3089    0.7637  -13.7761 C   0  0  0  0  0  0  0  0  0  0  0  0
  -16.3733    0.6183  -12.5939 O   0  0  0  0  0  0  0  0  0  0  0  0
  -15.8154    0.9157  -13.6459 C   0  0  0  0  0  0  0  0  0  0  0  0
  -16.4293    1.3722  -14.7933 N   0  0  0  0  0  0  0  0  0  0  0  0
  -15.8735    1.4213  -15.6375 H   0  0  0  0  0  0  0  0  0  0  0  0
  -17.8015    1.6827  -14.9329 C   0  0  0  0  0  0  0  0  0  0  0  0
  -18.3043    2.9871  -14.9344 C   0  0  0  0  0  0  0  0  0  0  0  0
  -19.6801    3.2215  -15.0106 C   0  0  0  0  0  0  0  0  0  0  0  0
  -20.5669    2.1533  -15.0980 C   0  0  0  0  0  0  0  0  0  0  0  0
  -20.0752    0.8509  -15.1445 C   0  0  0  0  0  0  0  0  0  0  0  0
  -18.6980    0.6168  -15.0752 C   0  0  0  0  0  0  0  0  0  0  0  0
  -14.8763   -6.6473  -11.7599 O   0  0  0  0  0  0  0  0  0  0  0  0
  -14.0163   -7.5712  -12.3442 C   0  0  0  0  0  0  0  0  0  0  0  0
  -14.2486   -7.8627  -13.6728 C   0  0  0  0  0  0  0  0  0  0  0  0
  -13.4073   -8.7885  -14.2519 C   0  0  0  0  0  0  0  0  0  0  0  0
  -12.4115   -9.3563  -13.5617 N   0  0  0  0  0  0  0  0  0  0  0  0
  -12.2788   -9.0151  -12.2770 C   0  0  0  0  0  0  0  0  0  0  0  0
  -13.0617   -8.1650  -11.6112 N   0  0  0  0  0  0  0  0  0  0  0  0
  -13.6332   -9.1488  -15.5949 N   0  0  0  0  0  0  0  0  0  0  0  0
  -13.3339   -8.3587  -16.6799 C   0  0  0  0  0  0  0  0  0  0  0  0
  -12.9110   -7.2063  -16.6278 O   0  0  0  0  0  0  0  0  0  0  0  0
  -13.5306   -8.9593  -17.9109 N   0  0  0  0  0  0  0  0  0  0  0  0
  -13.9786  -10.2996  -18.2375 C   0  0  0  0  0  0  0  0  0  0  0  0
  -13.3915  -10.5486  -19.6174 C   0  0  0  0  0  0  0  0  0  0  0  0
  -13.4193   -9.1748  -20.2754 C   0  0  0  0  0  0  0  0  0  0  0  0
  -13.2668   -8.1945  -19.1194 C   0  0  0  0  0  0  0  0  0  0  0  0
  -14.0664  -10.0362  -15.7687 H   0  0  0  0  0  0  0  0  0  0  0  0
 16 17  2  0  0  0
 17 15  1  0  0  0
 17 18  1  0  0  0
 15 10  1  0  0  0
 10  8  1  0  0  0
 10 11  1  0  0  0
  8  1  1  0  0  0
  8  9  1  0  0  0
  1  2  1  0  0  0
  1  7  2  0  0  0
  2  3  2  0  0  0
  3  4  1  0  0  0
  4 26  1  0  0  0
  4  5  2  0  0  0
 26 27  1  0  0  0
 27 28  1  0  0  0
 27 32  2  0  0  0
 28 29  2  0  0  0
 29 33  1  0  0  0
 29 30  1  0  0  0
 33 34  1  0  0  0
 33 41  1  0  0  0
 34 35  2  0  0  0
 34 36  1  0  0  0
 36 37  1  0  0  0
 36 40  1  0  0  0
 37 38  1  0  0  0
 38 39  1  0  0  0
 39 40  1  0  0  0
 30 31  2  0  0  0
 31 32  1  0  0  0
  5  6  1  0  0  0
  5  7  1  0  0  0
 11 12  1  0  0  0
 11 13  1  0  0  0
 11 14  1  0  0  0
 18 20  1  0  0  0
 18 19  1  0  0  0
 20 21  1  0  0  0
 20 25  2  0  0  0
 21 22  2  0  0  0
 22 23  1  0  0  0
 23 24  2  0  0  0
 24 25  1  0  0  0
M  END
> <minimizedAffinity>
-9.04264

$$$$
