CHEMBL3656109


 37 40  0  0  0  0  0  0  0  0999 V2000
  -28.3455   -2.9580   -5.4318 C   0  0  0  0  0  0  0  0  0  0  0  0
  -27.7804   -1.7020   -5.6387 C   0  0  0  0  0  0  0  0  0  0  0  0
  -27.6649   -1.1804   -6.9325 C   0  0  0  0  0  0  0  0  0  0  0  0
  -28.0939   -1.9008   -8.0519 C   0  0  0  0  0  0  0  0  0  0  0  0
  -28.6460   -3.1710   -7.8437 C   0  0  0  0  0  0  0  0  0  0  0  0
  -28.7676   -3.6951   -6.5434 C   0  0  0  0  0  0  0  0  0  0  0  0
  -28.0162   -1.3962   -9.3759 N   0  0  0  0  0  0  0  0  0  0  0  0
  -26.9912   -1.6381  -10.2757 C   0  0  0  0  0  0  0  0  0  0  0  0
  -26.0694   -2.4239  -10.0893 O   0  0  0  0  0  0  0  0  0  0  0  0
  -27.0977   -0.8615  -11.4240 N   0  0  0  0  0  0  0  0  0  0  0  0
  -28.8208   -0.8967   -9.7293 H   0  0  0  0  0  0  0  0  0  0  0  0
  -27.4421    0.0761  -11.2584 H   0  0  0  0  0  0  0  0  0  0  0  0
  -26.0738   -0.9468  -12.4075 C   0  0  0  0  0  0  0  0  0  0  0  0
  -24.8198   -0.3500  -12.2213 C   0  0  0  0  0  0  0  0  0  0  0  0
  -23.8699   -0.3407  -13.2539 C   0  0  0  0  0  0  0  0  0  0  0  0
  -22.5329    0.3147  -13.0619 C   0  0  0  0  0  0  0  0  0  0  0  0
  -24.1932   -0.9290  -14.4840 C   0  0  0  0  0  0  0  0  0  0  0  0
  -25.4292   -1.5536  -14.6639 C   0  0  0  0  0  0  0  0  0  0  0  0
  -26.3484   -1.5804  -13.6189 C   0  0  0  0  0  0  0  0  0  0  0  0
  -27.5447   -2.1573  -13.8126 F   0  0  0  0  0  0  0  0  0  0  0  0
  -28.4827   -3.6137   -3.7803 S   0  0  0  0  0  0  0  0  0  0  0  0
  -27.9528   -7.6172   -4.4034 C   0  0  0  0  0  0  0  0  0  0  0  0
  -27.6777   -6.2582   -4.2973 C   0  0  0  0  0  0  0  0  0  0  0  0
  -28.7089   -5.3765   -3.9913 C   0  0  0  0  0  0  0  0  0  0  0  0
  -29.9915   -5.9020   -3.8221 C   0  0  0  0  0  0  0  0  0  0  0  0
  -30.1783   -7.2714   -3.9526 C   0  0  0  0  0  0  0  0  0  0  0  0
  -29.1869   -8.1447   -4.2355 N   0  0  0  0  0  0  0  0  0  0  0  0
  -25.0104   -9.8683   -4.7604 C   0  0  0  0  0  0  0  0  0  0  0  0
  -25.8189  -10.2121   -5.8303 C   0  0  0  0  0  0  0  0  0  0  0  0
  -26.9503   -9.4325   -5.7832 N   0  0  0  0  0  0  0  0  0  0  0  0
  -26.8959   -8.5795   -4.7052 C   0  0  0  0  0  0  0  0  0  0  0  0
  -25.7082   -8.8485   -4.0563 C   0  0  0  0  0  0  0  0  0  0  0  0
  -27.7312   -9.4615   -6.4347 H   0  0  0  0  0  0  0  0  0  0  0  0
  -23.7122  -10.4065   -4.3828 C   0  0  0  0  0  0  0  0  0  0  0  0
  -22.7650  -10.4598   -5.1582 O   0  0  0  0  0  0  0  0  0  0  0  0
  -22.3513  -11.1959   -2.6617 C   0  0  0  0  0  0  0  0  0  0  0  0
  -23.6647  -10.8403   -3.0872 O   0  0  0  0  0  0  0  0  0  0  0  0
 36 37  1  0  0  0
 37 34  1  0  0  0
 34 35  2  0  0  0
 34 28  1  0  0  0
 28 29  2  0  0  0
 28 32  1  0  0  0
 29 30  1  0  0  0
 30 31  1  0  0  0
 30 33  1  0  0  0
 31 22  1  0  0  0
 31 32  2  0  0  0
 22 23  1  0  0  0
 22 27  2  0  0  0
 23 24  2  0  0  0
 24 21  1  0  0  0
 24 25  1  0  0  0
 21  1  1  0  0  0
  1  2  1  0  0  0
  1  6  2  0  0  0
  2  3  2  0  0  0
  3  4  1  0  0  0
  4  7  1  0  0  0
  4  5  2  0  0  0
  7  8  1  0  0  0
  7 11  1  0  0  0
  8  9  2  0  0  0
  8 10  1  0  0  0
 10 13  1  0  0  0
 10 12  1  0  0  0
 13 14  1  0  0  0
 13 19  2  0  0  0
 14 15  2  0  0  0
 15 16  1  0  0  0
 15 17  1  0  0  0
 17 18  2  0  0  0
 18 19  1  0  0  0
 19 20  1  0  0  0
  5  6  1  0  0  0
 25 26  2  0  0  0
 26 27  1  0  0  0
M  END
> <minimizedAffinity>
-9.85941

$$$$
