CHEMBL3916600


 45 49  0  0  0  0  0  0  0  0999 V2000
  -19.7470    1.4629  -14.8508 C   0  0  0  0  0  0  0  0  0  0  0  0
  -20.1503    0.1322  -15.0309 C   0  0  0  0  0  0  0  0  0  0  0  0
  -21.4355   -0.2751  -14.6837 C   0  0  0  0  0  0  0  0  0  0  0  0
  -22.3548    0.6280  -14.1476 C   0  0  0  0  0  0  0  0  0  0  0  0
  -21.9417    1.9507  -13.9140 C   0  0  0  0  0  0  0  0  0  0  0  0
  -20.6453    2.3631  -14.2656 C   0  0  0  0  0  0  0  0  0  0  0  0
  -14.9544    1.6756  -16.4873 C   0  0  0  0  0  0  0  0  0  0  0  0
  -14.3522    2.6747  -17.1705 N   0  0  0  0  0  0  0  0  0  0  0  0
  -15.0297    3.8295  -17.3486 C   0  0  0  0  0  0  0  0  0  0  0  0
  -16.2709    4.1404  -16.9289 N   0  0  0  0  0  0  0  0  0  0  0  0
  -16.8225    3.1181  -16.2602 C   0  0  0  0  0  0  0  0  0  0  0  0
  -18.0941    3.0951  -15.7637 N   0  0  0  0  0  0  0  0  0  0  0  0
  -18.3930    1.8481  -15.2435 C   0  0  0  0  0  0  0  0  0  0  0  0
  -17.2163    1.1194  -15.2904 C   0  0  0  0  0  0  0  0  0  0  0  0
  -16.2441    1.8936  -15.9858 C   0  0  0  0  0  0  0  0  0  0  0  0
  -18.7431    3.8614  -15.8605 H   0  0  0  0  0  0  0  0  0  0  0  0
  -14.3545    0.4309  -16.3197 N   0  0  0  0  0  0  0  0  0  0  0  0
  -15.0936   -0.2687  -16.3192 H   0  0  0  0  0  0  0  0  0  0  0  0
  -12.0658   -0.1824  -15.5958 C   0  0  0  0  0  0  0  0  0  0  0  0
  -13.4752    0.2472  -15.1666 C   0  0  0  0  0  0  0  0  0  0  0  0
  -14.1116   -0.8401  -14.3063 C   0  0  0  0  0  0  0  0  0  0  0  0
  -14.9464   -0.5039  -13.2318 C   0  0  0  0  0  0  0  0  0  0  0  0
  -15.5621   -1.5032  -12.4740 C   0  0  0  0  0  0  0  0  0  0  0  0
  -15.3521   -2.8477  -12.7805 C   0  0  0  0  0  0  0  0  0  0  0  0
  -14.5209   -3.1976  -13.8408 C   0  0  0  0  0  0  0  0  0  0  0  0
  -13.9050   -2.2014  -14.5974 C   0  0  0  0  0  0  0  0  0  0  0  0
  -23.7868    0.1817  -13.9409 C   0  0  0  0  0  0  0  0  0  0  0  0
  -23.9934   -1.2411  -13.6197 N   0  0  0  0  0  0  0  0  0  0  0  0
  -25.3890   -1.6993  -13.7845 C   0  0  0  0  0  0  0  0  0  0  0  0
  -26.4232   -1.1637  -12.7593 C   0  0  0  0  0  0  0  0  0  0  0  0
  -25.9997   -1.0831  -11.3518 N   0  0  0  0  0  0  0  0  0  0  0  0
  -24.5689   -0.7954  -11.1904 C   0  0  0  0  0  0  0  0  0  0  0  0
  -23.6318   -1.4809  -12.2057 C   0  0  0  0  0  0  0  0  0  0  0  0
  -26.5157   -2.1681  -10.5138 C   0  0  0  0  0  0  0  0  0  0  0  0
  -27.8505   -1.8209   -9.8268 C   0  0  0  0  0  0  0  0  0  0  0  0
  -27.6331   -1.2542   -8.4234 C   0  0  0  0  0  0  0  0  0  0  0  0
  -28.1402   -2.1953   -7.3387 C   0  0  0  0  0  0  0  0  0  0  0  0
  -28.9195   -3.3303   -7.9927 C   0  0  0  0  0  0  0  0  0  0  0  0
  -28.9408   -4.5763   -7.1246 C   0  0  0  0  0  0  0  0  0  0  0  0
  -28.5520   -5.7948   -7.9322 C   0  0  0  0  0  0  0  0  0  0  0  0
  -29.1537   -6.8632   -7.9245 O   0  0  0  0  0  0  0  0  0  0  0  0
  -27.4377   -5.5993   -8.7102 N   0  0  0  0  0  0  0  0  0  0  0  0
  -26.9835   -6.7592   -9.3856 O   0  0  0  0  0  0  0  0  0  0  0  0
  -26.7335   -4.9057   -8.4851 H   0  0  0  0  0  0  0  0  0  0  0  0
  -27.6749   -7.4198   -9.1503 H   0  0  0  0  0  0  0  0  0  0  0  0
 19 20  1  0  0  0
 20 17  1  0  0  0
 20 21  1  0  0  0
 17  7  1  0  0  0
 17 18  1  0  0  0
  7  8  1  0  0  0
  7 15  2  0  0  0
  8  9  2  0  0  0
  9 10  1  0  0  0
 10 11  2  0  0  0
 11 12  1  0  0  0
 11 15  1  0  0  0
 12 13  1  0  0  0
 12 16  1  0  0  0
 13  1  1  0  0  0
 13 14  2  0  0  0
  1  2  1  0  0  0
  1  6  2  0  0  0
  2  3  2  0  0  0
  3  4  1  0  0  0
  4 27  1  0  0  0
  4  5  2  0  0  0
 27 28  1  0  0  0
 28 29  1  0  0  0
 28 33  1  0  0  0
 29 30  1  0  0  0
 30 31  1  0  0  0
 31 34  1  0  0  0
 31 32  1  0  0  0
 34 35  1  0  0  0
 35 36  1  0  0  0
 36 37  1  0  0  0
 37 38  1  0  0  0
 38 39  1  0  0  0
 39 40  1  0  0  0
 40 41  2  0  0  0
 40 42  1  0  0  0
 42 43  1  0  0  0
 42 44  1  0  0  0
 43 45  1  0  0  0
 32 33  1  0  0  0
  5  6  1  0  0  0
 14 15  1  0  0  0
 21 22  1  0  0  0
 21 26  2  0  0  0
 22 23  2  0  0  0
 23 24  1  0  0  0
 24 25  2  0  0  0
 25 26  1  0  0  0
M  END
> <minimizedAffinity>
-9.61531

$$$$
