CHEMBL3893595


 35 39  0  0  0  0  0  0  0  0999 V2000
  -27.2295  -10.5581   -3.5851 C   0  0  0  0  0  0  0  0  0  0  0  0
  -28.5995  -10.3565   -3.7470 C   0  0  0  0  0  0  0  0  0  0  0  0
  -29.0810   -9.0940   -4.0970 C   0  0  0  0  0  0  0  0  0  0  0  0
  -28.1820   -8.0404   -4.1908 C   0  0  0  0  0  0  0  0  0  0  0  0
  -26.8683   -8.2056   -3.9582 N   0  0  0  0  0  0  0  0  0  0  0  0
  -26.4136   -9.4454   -3.6592 C   0  0  0  0  0  0  0  0  0  0  0  0
  -28.6777   -6.7814   -4.5432 N   0  0  0  0  0  0  0  0  0  0  0  0
  -28.8672   -6.3480   -5.8356 C   0  0  0  0  0  0  0  0  0  0  0  0
  -28.6302   -6.9847   -6.8640 O   0  0  0  0  0  0  0  0  0  0  0  0
  -29.3829   -5.0627   -5.9297 N   0  0  0  0  0  0  0  0  0  0  0  0
  -29.7627   -4.5393   -7.2238 C   0  0  0  0  0  0  0  0  0  0  0  0
  -30.3157   -3.1720   -6.8928 C   0  0  0  0  0  0  0  0  0  0  0  0
  -29.5495   -2.8164   -5.7173 N   0  0  0  0  0  0  0  0  0  0  0  0
  -29.0964   -3.9759   -5.0738 C   0  0  0  0  0  0  0  0  0  0  0  0
  -28.5897   -4.0440   -3.9637 O   0  0  0  0  0  0  0  0  0  0  0  0
  -28.8777   -6.1136   -3.8081 H   0  0  0  0  0  0  0  0  0  0  0  0
  -29.4299   -1.4569   -5.2000 C   0  0  0  0  0  0  0  0  0  0  0  0
  -30.3606   -0.4884   -5.9395 C   0  0  0  0  0  0  0  0  0  0  0  0
  -30.1663    0.9529   -5.4807 C   0  0  0  0  0  0  0  0  0  0  0  0
  -28.7073    1.3824   -5.5935 C   0  0  0  0  0  0  0  0  0  0  0  0
  -27.7953    0.4518   -4.8015 C   0  0  0  0  0  0  0  0  0  0  0  0
  -27.9633   -0.9971   -5.2447 C   0  0  0  0  0  0  0  0  0  0  0  0
  -26.6407  -11.7706   -3.3387 O   0  0  0  0  0  0  0  0  0  0  0  0
  -23.1868  -11.8397   -4.6288 C   0  0  0  0  0  0  0  0  0  0  0  0
  -24.5537  -11.6136   -4.6121 C   0  0  0  0  0  0  0  0  0  0  0  0
  -25.2708  -11.8930   -3.4458 C   0  0  0  0  0  0  0  0  0  0  0  0
  -24.5867  -12.2966   -2.3145 C   0  0  0  0  0  0  0  0  0  0  0  0
  -23.2186  -12.4642   -2.4039 C   0  0  0  0  0  0  0  0  0  0  0  0
  -22.5083  -12.2703   -3.5418 N   0  0  0  0  0  0  0  0  0  0  0  0
  -20.1840   -9.8591   -8.0433 C   0  0  0  0  0  0  0  0  0  0  0  0
  -21.0809  -10.7380   -7.3415 N   0  0  0  0  0  0  0  0  0  0  0  0
  -21.5163  -10.6132   -6.0554 C   0  0  0  0  0  0  0  0  0  0  0  0
  -22.4305  -11.6263   -5.8512 C   0  0  0  0  0  0  0  0  0  0  0  0
  -22.4308  -12.3304   -7.0787 C   0  0  0  0  0  0  0  0  0  0  0  0
  -21.6087  -11.7979   -7.9856 N   0  0  0  0  0  0  0  0  0  0  0  0
 30 31  1  0  0  0
 31 32  1  0  0  0
 31 35  1  0  0  0
 32 33  2  0  0  0
 33 24  1  0  0  0
 33 34  1  0  0  0
 24 25  1  0  0  0
 24 29  2  0  0  0
 25 26  2  0  0  0
 26 23  1  0  0  0
 26 27  1  0  0  0
 23  1  1  0  0  0
  1  2  1  0  0  0
  1  6  2  0  0  0
  2  3  2  0  0  0
  3  4  1  0  0  0
  4  7  1  0  0  0
  4  5  2  0  0  0
  7  8  1  0  0  0
  7 16  1  0  0  0
  8  9  2  0  0  0
  8 10  1  0  0  0
 10 11  1  0  0  0
 10 14  1  0  0  0
 11 12  1  0  0  0
 12 13  1  0  0  0
 13 17  1  0  0  0
 13 14  1  0  0  0
 17 18  1  0  0  0
 17 22  1  0  0  0
 18 19  1  0  0  0
 19 20  1  0  0  0
 20 21  1  0  0  0
 21 22  1  0  0  0
 14 15  2  0  0  0
  5  6  1  0  0  0
 27 28  2  0  0  0
 28 29  1  0  0  0
 34 35  2  0  0  0
M  END
> <minimizedAffinity>
-7.85761

$$$$
