CHEMBL3739726


 39 43  0  0  0  0  0  0  0  0999 V2000
  -29.9781   -7.9464   -7.8026 C   0  0  0  0  0  0  0  0  0  0  0  0
  -30.6828   -9.0687   -8.2355 C   0  0  0  0  0  0  0  0  0  0  0  0
  -29.9596  -10.1838   -8.6828 C   0  0  0  0  0  0  0  0  0  0  0  0
  -28.5513  -10.1302   -8.7924 C   0  0  0  0  0  0  0  0  0  0  0  0
  -27.7324  -11.1674   -9.2681 C   0  0  0  0  0  0  0  0  0  0  0  0
  -27.5694  -10.9757  -10.6157 C   0  0  0  0  0  0  0  0  0  0  0  0
  -27.0468   -9.7349  -10.9521 C   0  0  0  0  0  0  0  0  0  0  0  0
  -27.1404   -8.6815  -10.0090 C   0  0  0  0  0  0  0  0  0  0  0  0
  -28.0391   -8.8444   -8.9255 C   0  0  0  0  0  0  0  0  0  0  0  0
  -28.6564   -7.7910   -8.2206 C   0  0  0  0  0  0  0  0  0  0  0  0
  -26.2970  -11.2810   -8.5810 C   0  0  0  0  0  0  0  0  0  0  0  0
  -25.3135  -11.5840   -9.2501 O   0  0  0  0  0  0  0  0  0  0  0  0
  -26.2793  -11.0410   -7.1899 N   0  0  0  0  0  0  0  0  0  0  0  0
  -27.1595  -10.7787   -6.7702 H   0  0  0  0  0  0  0  0  0  0  0  0
  -25.2037  -11.1600   -6.2592 C   0  0  0  0  0  0  0  0  0  0  0  0
  -24.9727  -12.2788   -5.4573 C   0  0  0  0  0  0  0  0  0  0  0  0
  -23.8627  -12.3359   -4.5962 C   0  0  0  0  0  0  0  0  0  0  0  0
  -22.9723  -11.2691   -4.5062 C   0  0  0  0  0  0  0  0  0  0  0  0
  -23.2024  -10.1310   -5.2731 C   0  0  0  0  0  0  0  0  0  0  0  0
  -24.3104  -10.0768   -6.1362 C   0  0  0  0  0  0  0  0  0  0  0  0
  -30.6795   -6.9668   -7.1238 O   0  0  0  0  0  0  0  0  0  0  0  0
  -29.7959   -4.6912   -4.5812 C   0  0  0  0  0  0  0  0  0  0  0  0
  -29.3226   -5.4383   -3.5733 N   0  0  0  0  0  0  0  0  0  0  0  0
  -29.3081   -6.7732   -3.7541 C   0  0  0  0  0  0  0  0  0  0  0  0
  -29.7585   -7.3929   -4.9060 C   0  0  0  0  0  0  0  0  0  0  0  0
  -30.1974   -6.5384   -5.9055 C   0  0  0  0  0  0  0  0  0  0  0  0
  -30.2297   -5.1991   -5.7389 N   0  0  0  0  0  0  0  0  0  0  0  0
  -29.8258   -3.3064   -4.3515 N   0  0  0  0  0  0  0  0  0  0  0  0
  -30.7590   -3.0878   -4.0467 H   0  0  0  0  0  0  0  0  0  0  0  0
  -29.0922   -0.0505   -5.9975 C   0  0  0  0  0  0  0  0  0  0  0  0
  -29.5770   -0.9917   -5.0957 C   0  0  0  0  0  0  0  0  0  0  0  0
  -29.2842   -2.3503   -5.2343 C   0  0  0  0  0  0  0  0  0  0  0  0
  -28.3717   -2.7497   -6.2214 C   0  0  0  0  0  0  0  0  0  0  0  0
  -27.8931   -1.8224   -7.1516 C   0  0  0  0  0  0  0  0  0  0  0  0
  -28.2589   -0.4757   -7.0322 C   0  0  0  0  0  0  0  0  0  0  0  0
  -30.7307    1.6305   -6.3187 C   0  0  0  0  0  0  0  0  0  0  0  0
  -29.3921    1.2856   -5.9647 O   0  0  0  0  0  0  0  0  0  0  0  0
  -27.0974   -2.1086   -8.2291 O   0  0  0  0  0  0  0  0  0  0  0  0
  -27.6421   -1.8594   -9.5197 C   0  0  0  0  0  0  0  0  0  0  0  0
 36 37  1  0  0  0
 37 30  1  0  0  0
 30 31  1  0  0  0
 30 35  2  0  0  0
 31 32  2  0  0  0
 32 28  1  0  0  0
 32 33  1  0  0  0
 28 22  1  0  0  0
 28 29  1  0  0  0
 22 23  1  0  0  0
 22 27  2  0  0  0
 23 24  2  0  0  0
 24 25  1  0  0  0
 25 26  2  0  0  0
 26 21  1  0  0  0
 26 27  1  0  0  0
 21  1  1  0  0  0
  1  2  1  0  0  0
  1 10  2  0  0  0
  2  3  2  0  0  0
  3  4  1  0  0  0
  4  5  1  0  0  0
  4  9  2  0  0  0
  5 11  1  0  0  0
  5  6  2  0  0  0
 11 12  2  0  0  0
 11 13  1  0  0  0
 13 15  1  0  0  0
 13 14  1  0  0  0
 15 16  1  0  0  0
 15 20  2  0  0  0
 16 17  2  0  0  0
 17 18  1  0  0  0
 18 19  2  0  0  0
 19 20  1  0  0  0
  6  7  1  0  0  0
  7  8  2  0  0  0
  8  9  1  0  0  0
  9 10  1  0  0  0
 33 34  2  0  0  0
 34 38  1  0  0  0
 34 35  1  0  0  0
 38 39  1  0  0  0
M  END
> <minimizedAffinity>
-9.45370

$$$$
