CHEMBL3962623


 35 39  0  0  0  0  0  0  0  0999 V2000
  -28.2856   -2.7871   -8.6662 C   0  0  0  0  0  0  0  0  0  0  0  0
  -28.1334   -4.1749   -8.7481 C   0  0  0  0  0  0  0  0  0  0  0  0
  -28.4618   -5.0354   -7.7030 C   0  0  0  0  0  0  0  0  0  0  0  0
  -28.9011   -4.5372   -6.4803 C   0  0  0  0  0  0  0  0  0  0  0  0
  -28.9798   -3.1363   -6.3492 C   0  0  0  0  0  0  0  0  0  0  0  0
  -28.6659   -2.2678   -7.4242 C   0  0  0  0  0  0  0  0  0  0  0  0
  -29.1933   -5.5590   -5.3853 C   0  0  0  0  0  0  0  0  0  0  0  0
  -30.6748   -5.9567   -5.2613 C   0  0  0  0  0  0  0  0  0  0  0  0
  -30.9781   -7.1603   -6.0682 N   0  0  0  0  0  0  0  0  0  0  0  0
  -30.1760   -8.1410   -5.7974 C   0  0  0  0  0  0  0  0  0  0  0  0
  -30.2191   -9.4409   -6.4179 C   0  0  0  0  0  0  0  0  0  0  0  0
  -30.1125   -9.5399   -7.7968 C   0  0  0  0  0  0  0  0  0  0  0  0
  -29.9363  -10.7998   -8.3508 C   0  0  0  0  0  0  0  0  0  0  0  0
  -29.9827  -11.9311   -7.5269 C   0  0  0  0  0  0  0  0  0  0  0  0
  -29.9847  -11.8018   -6.1305 C   0  0  0  0  0  0  0  0  0  0  0  0
  -29.9344  -10.5208   -5.5998 C   0  0  0  0  0  0  0  0  0  0  0  0
  -29.2855  -10.2344   -4.3712 N   0  0  0  0  0  0  0  0  0  0  0  0
  -28.5632   -9.0423   -4.2557 C   0  0  0  0  0  0  0  0  0  0  0  0
  -27.5636   -8.9739   -3.5540 O   0  0  0  0  0  0  0  0  0  0  0  0
  -29.0648   -7.9845   -5.0149 N   0  0  0  0  0  0  0  0  0  0  0  0
  -28.3128   -6.8279   -5.4679 C   0  0  0  0  0  0  0  0  0  0  0  0
  -28.9051  -11.0155   -3.8347 H   0  0  0  0  0  0  0  0  0  0  0  0
  -26.8183   -0.8856  -11.4804 N   0  0  0  0  0  0  0  0  0  0  0  0
  -26.8348   -1.5999  -10.2890 C   0  0  0  0  0  0  0  0  0  0  0  0
  -25.7960   -1.9241   -9.7256 O   0  0  0  0  0  0  0  0  0  0  0  0
  -28.0998   -1.9295   -9.8067 N   0  0  0  0  0  0  0  0  0  0  0  0
  -27.5631   -0.2276  -11.6384 H   0  0  0  0  0  0  0  0  0  0  0  0
  -28.8907   -1.7952  -10.4198 H   0  0  0  0  0  0  0  0  0  0  0  0
  -21.9806    0.1559  -14.4823 C   0  0  0  0  0  0  0  0  0  0  0  0
  -23.2222   -0.1721  -13.6935 C   0  0  0  0  0  0  0  0  0  0  0  0
  -23.4878    0.5358  -12.5209 C   0  0  0  0  0  0  0  0  0  0  0  0
  -24.6400    0.2517  -11.7817 C   0  0  0  0  0  0  0  0  0  0  0  0
  -25.5883   -0.6917  -12.2021 C   0  0  0  0  0  0  0  0  0  0  0  0
  -25.3008   -1.4207  -13.3569 C   0  0  0  0  0  0  0  0  0  0  0  0
  -24.1244   -1.1525  -14.0971 C   0  0  0  0  0  0  0  0  0  0  0  0
 29 30  1  0  0  0
 30 31  1  0  0  0
 30 35  2  0  0  0
 31 32  2  0  0  0
 32 33  1  0  0  0
 33 23  1  0  0  0
 33 34  2  0  0  0
 23 24  1  0  0  0
 23 27  1  0  0  0
 24 25  2  0  0  0
 24 26  1  0  0  0
 26  1  1  0  0  0
 26 28  1  0  0  0
  1  2  1  0  0  0
  1  6  2  0  0  0
  2  3  2  0  0  0
  3  4  1  0  0  0
  4  7  1  0  0  0
  4  5  2  0  0  0
  7  8  1  0  0  0
  7 21  1  0  0  0
  8  9  1  0  0  0
  9 10  2  0  0  0
 10 11  1  0  0  0
 10 20  1  0  0  0
 11 12  1  0  0  0
 11 16  2  0  0  0
 12 13  2  0  0  0
 13 14  1  0  0  0
 14 15  2  0  0  0
 15 16  1  0  0  0
 16 17  1  0  0  0
 17 18  1  0  0  0
 17 22  1  0  0  0
 18 19  2  0  0  0
 18 20  1  0  0  0
 20 21  1  0  0  0
  5  6  1  0  0  0
 34 35  1  0  0  0
M  END
> <minimizedAffinity>
-9.78098

$$$$
