CHEMBL2386807


 44 48  0  0  0  0  0  0  0  0999 V2000
  -26.4182   -2.0160  -10.7531 C   0  0  0  0  0  0  0  0  0  0  0  0
  -25.1083   -1.7620  -11.0795 C   0  0  0  0  0  0  0  0  0  0  0  0
  -25.1486   -0.7586  -12.0907 C   0  0  0  0  0  0  0  0  0  0  0  0
  -26.4175   -0.3541  -12.3022 N   0  0  0  0  0  0  0  0  0  0  0  0
  -27.1532   -1.1341  -11.4942 N   0  0  0  0  0  0  0  0  0  0  0  0
  -28.1618   -1.0698  -11.5156 H   0  0  0  0  0  0  0  0  0  0  0  0
  -24.0252   -0.2084  -12.8482 C   0  0  0  0  0  0  0  0  0  0  0  0
  -23.8668    1.1795  -12.9930 C   0  0  0  0  0  0  0  0  0  0  0  0
  -22.7944    1.7026  -13.7130 C   0  0  0  0  0  0  0  0  0  0  0  0
  -21.8528    0.8568  -14.3176 C   0  0  0  0  0  0  0  0  0  0  0  0
  -21.9904   -0.5266  -14.1522 C   0  0  0  0  0  0  0  0  0  0  0  0
  -23.0668   -1.0510  -13.4298 C   0  0  0  0  0  0  0  0  0  0  0  0
  -20.7316    1.4335  -15.1352 C   0  0  0  0  0  0  0  0  0  0  0  0
  -19.5187    0.6520  -15.0669 N   0  0  0  0  0  0  0  0  0  0  0  0
  -18.3827    1.1542  -14.4786 C   0  0  0  0  0  0  0  0  0  0  0  0
  -18.3460    2.2379  -13.9064 O   0  0  0  0  0  0  0  0  0  0  0  0
  -17.2982    0.3349  -14.6992 N   0  0  0  0  0  0  0  0  0  0  0  0
  -19.6183   -0.3542  -15.0469 H   0  0  0  0  0  0  0  0  0  0  0  0
  -17.2689   -0.0942  -15.6119 H   0  0  0  0  0  0  0  0  0  0  0  0
  -16.0521    0.7021  -14.2317 C   0  0  0  0  0  0  0  0  0  0  0  0
  -14.9997    1.2950  -14.9620 C   0  0  0  0  0  0  0  0  0  0  0  0
  -13.9657    1.3760  -14.0649 C   0  0  0  0  0  0  0  0  0  0  0  0
  -12.5709    1.8392  -14.1499 C   0  0  0  0  0  0  0  0  0  0  0  0
  -14.3836    0.9036  -12.8597 O   0  0  0  0  0  0  0  0  0  0  0  0
  -15.7166    0.5322  -12.9489 N   0  0  0  0  0  0  0  0  0  0  0  0
  -26.9677   -2.9259   -9.9212 N   0  0  0  0  0  0  0  0  0  0  0  0
  -27.4738   -3.6894  -10.3619 H   0  0  0  0  0  0  0  0  0  0  0  0
  -28.1047    0.3589   -6.5847 C   0  0  0  0  0  0  0  0  0  0  0  0
  -28.1274   -1.0621   -7.0550 C   0  0  0  0  0  0  0  0  0  0  0  0
  -27.5041   -1.3200   -8.2166 N   0  0  0  0  0  0  0  0  0  0  0  0
  -27.5735   -2.5747   -8.6880 C   0  0  0  0  0  0  0  0  0  0  0  0
  -28.2029   -3.5637   -7.9760 C   0  0  0  0  0  0  0  0  0  0  0  0
  -28.8348   -3.2206   -6.7956 C   0  0  0  0  0  0  0  0  0  0  0  0
  -28.7890   -1.9707   -6.3135 N   0  0  0  0  0  0  0  0  0  0  0  0
  -29.5162   -4.2343   -6.1300 N   0  0  0  0  0  0  0  0  0  0  0  0
  -29.1490   -5.6258   -6.4027 C   0  0  0  0  0  0  0  0  0  0  0  0
  -30.3066   -6.5314   -5.8807 C   0  0  0  0  0  0  0  0  0  0  0  0
  -30.7130   -6.3196   -4.4549 N   0  0  0  0  0  0  0  0  0  0  0  0
  -30.9205   -4.8651   -4.2403 C   0  0  0  0  0  0  0  0  0  0  0  0
  -29.7502   -3.9722   -4.7022 C   0  0  0  0  0  0  0  0  0  0  0  0
  -29.7021   -6.9008   -3.5449 C   0  0  0  0  0  0  0  0  0  0  0  0
  -29.0408   -8.1799   -4.0888 C   0  0  0  0  0  0  0  0  0  0  0  0
  -29.4723   -9.3245   -3.3604 O   0  0  0  0  0  0  0  0  0  0  0  0
  -29.5021   -9.0449   -2.4245 H   0  0  0  0  0  0  0  0  0  0  0  0
 28 29  1  0  0  0
 29 30  1  0  0  0
 29 34  2  0  0  0
 30 31  2  0  0  0
 31 26  1  0  0  0
 31 32  1  0  0  0
 26  1  1  0  0  0
 26 27  1  0  0  0
  1  2  2  0  0  0
  1  5  1  0  0  0
  2  3  1  0  0  0
  3  7  1  0  0  0
  3  4  2  0  0  0
  7  8  1  0  0  0
  7 12  2  0  0  0
  8  9  2  0  0  0
  9 10  1  0  0  0
 10 13  1  0  0  0
 10 11  2  0  0  0
 13 14  1  0  0  0
 14 15  1  0  0  0
 14 18  1  0  0  0
 15 16  2  0  0  0
 15 17  1  0  0  0
 17 20  1  0  0  0
 17 19  1  0  0  0
 20 21  1  0  0  0
 20 25  2  0  0  0
 21 22  2  0  0  0
 22 23  1  0  0  0
 22 24  1  0  0  0
 24 25  1  0  0  0
 11 12  1  0  0  0
  4  5  1  0  0  0
  5  6  1  0  0  0
 32 33  2  0  0  0
 33 35  1  0  0  0
 33 34  1  0  0  0
 35 36  1  0  0  0
 35 40  1  0  0  0
 36 37  1  0  0  0
 37 38  1  0  0  0
 38 41  1  0  0  0
 38 39  1  0  0  0
 41 42  1  0  0  0
 42 43  1  0  0  0
 43 44  1  0  0  0
 39 40  1  0  0  0
M  END
> <minimizedAffinity>
-11.22606

$$$$
