CHEMBL4531859


 37 41  0  0  0  0  0  0  0  0999 V2000
  -19.1425    1.9333  -14.9016 C   0  0  0  0  0  0  0  0  0  0  0  0
  -18.3166    0.8043  -14.8267 C   0  0  0  0  0  0  0  0  0  0  0  0
  -16.9818    0.7987  -15.3027 C   0  0  0  0  0  0  0  0  0  0  0  0
  -16.4288    1.9068  -15.9485 C   0  0  0  0  0  0  0  0  0  0  0  0
  -17.2807    3.0114  -16.1168 C   0  0  0  0  0  0  0  0  0  0  0  0
  -18.6182    3.0250  -15.6067 C   0  0  0  0  0  0  0  0  0  0  0  0
  -22.5410    1.2045  -13.5368 N   0  0  0  0  0  0  0  0  0  0  0  0
  -21.3597    0.9668  -14.2488 C   0  0  0  0  0  0  0  0  0  0  0  0
  -21.1553   -0.0931  -14.8142 O   0  0  0  0  0  0  0  0  0  0  0  0
  -20.4390    2.0159  -14.2619 N   0  0  0  0  0  0  0  0  0  0  0  0
  -22.8658    2.1574  -13.4631 H   0  0  0  0  0  0  0  0  0  0  0  0
  -20.5764    2.7623  -13.5950 H   0  0  0  0  0  0  0  0  0  0  0  0
  -25.0429   -1.0861  -11.8432 C   0  0  0  0  0  0  0  0  0  0  0  0
  -25.6220   -1.7087  -12.9453 C   0  0  0  0  0  0  0  0  0  0  0  0
  -25.1369   -1.4439  -14.2213 C   0  0  0  0  0  0  0  0  0  0  0  0
  -24.0910   -0.5361  -14.3965 C   0  0  0  0  0  0  0  0  0  0  0  0
  -23.5293    0.1693  -13.3222 C   0  0  0  0  0  0  0  0  0  0  0  0
  -23.9864   -0.1580  -12.0301 C   0  0  0  0  0  0  0  0  0  0  0  0
  -26.7304   -1.9212  -10.3741 C   0  0  0  0  0  0  0  0  0  0  0  0
  -25.4532   -1.2978  -10.5469 O   0  0  0  0  0  0  0  0  0  0  0  0
  -15.0785    2.0235  -16.3381 O   0  0  0  0  0  0  0  0  0  0  0  0
  -14.1453    2.6170  -15.4671 C   0  0  0  0  0  0  0  0  0  0  0  0
  -13.8107    1.8594  -14.3952 N   0  0  0  0  0  0  0  0  0  0  0  0
  -12.9173    2.3485  -13.5485 C   0  0  0  0  0  0  0  0  0  0  0  0
  -12.3150    3.5252  -13.6598 N   0  0  0  0  0  0  0  0  0  0  0  0
  -12.5606    4.2341  -14.7531 C   0  0  0  0  0  0  0  0  0  0  0  0
  -11.7786    5.3811  -14.8114 C   0  0  0  0  0  0  0  0  0  0  0  0
  -11.7030    6.1522  -15.9505 C   0  0  0  0  0  0  0  0  0  0  0  0
  -12.5399    5.8173  -16.9976 C   0  0  0  0  0  0  0  0  0  0  0  0
  -13.5421    4.8337  -16.8680 C   0  0  0  0  0  0  0  0  0  0  0  0
  -13.4867    3.8791  -15.7702 C   0  0  0  0  0  0  0  0  0  0  0  0
  -14.5852    4.8558  -17.7677 O   0  0  0  0  0  0  0  0  0  0  0  0
  -14.7135    6.0904  -18.5429 C   0  0  0  0  0  0  0  0  0  0  0  0
  -13.6388    7.1623  -18.3563 C   0  0  0  0  0  0  0  0  0  0  0  0
  -12.3940    6.5287  -18.1639 O   0  0  0  0  0  0  0  0  0  0  0  0
  -10.9181    7.2561  -16.1320 O   0  0  0  0  0  0  0  0  0  0  0  0
  -11.2411    8.4202  -15.3869 C   0  0  0  0  0  0  0  0  0  0  0  0
 19 20  1  0  0  0
 20 13  1  0  0  0
 13 14  1  0  0  0
 13 18  2  0  0  0
 14 15  2  0  0  0
 15 16  1  0  0  0
 16 17  2  0  0  0
 17  7  1  0  0  0
 17 18  1  0  0  0
  7  8  1  0  0  0
  7 11  1  0  0  0
  8  9  2  0  0  0
  8 10  1  0  0  0
 10  1  1  0  0  0
 10 12  1  0  0  0
  1  2  1  0  0  0
  1  6  2  0  0  0
  2  3  2  0  0  0
  3  4  1  0  0  0
  4 21  1  0  0  0
  4  5  2  0  0  0
 21 22  1  0  0  0
 22 23  1  0  0  0
 22 31  2  0  0  0
 23 24  2  0  0  0
 24 25  1  0  0  0
 25 26  2  0  0  0
 26 27  1  0  0  0
 26 31  1  0  0  0
 27 28  2  0  0  0
 28 36  1  0  0  0
 28 29  1  0  0  0
 36 37  1  0  0  0
 29 30  2  0  0  0
 29 35  1  0  0  0
 30 31  1  0  0  0
 30 32  1  0  0  0
 32 33  1  0  0  0
 33 34  1  0  0  0
 34 35  1  0  0  0
  5  6  1  0  0  0
M  END
> <minimizedAffinity>
-9.47379

$$$$
