CHEMBL3972701


 38 41  0  0  0  0  0  0  0  0999 V2000
  -25.5145   -1.7307  -12.3316 C   0  0  0  0  0  0  0  0  0  0  0  0
  -24.2750   -1.6425  -11.6880 C   0  0  0  0  0  0  0  0  0  0  0  0
  -23.1406   -1.1982  -12.3841 C   0  0  0  0  0  0  0  0  0  0  0  0
  -23.2287   -0.8318  -13.7313 C   0  0  0  0  0  0  0  0  0  0  0  0
  -24.4494   -0.9792  -14.3947 C   0  0  0  0  0  0  0  0  0  0  0  0
  -25.5756   -1.4203  -13.6918 C   0  0  0  0  0  0  0  0  0  0  0  0
  -26.7555   -1.4831  -14.3290 F   0  0  0  0  0  0  0  0  0  0  0  0
  -28.0019   -2.3738   -9.7386 N   0  0  0  0  0  0  0  0  0  0  0  0
  -26.7628   -2.0256  -10.2518 C   0  0  0  0  0  0  0  0  0  0  0  0
  -25.8007   -1.6569   -9.5890 O   0  0  0  0  0  0  0  0  0  0  0  0
  -26.7101   -2.0927  -11.6423 N   0  0  0  0  0  0  0  0  0  0  0  0
  -28.6261   -2.8839  -10.3462 H   0  0  0  0  0  0  0  0  0  0  0  0
  -27.5698   -1.8441  -12.1160 H   0  0  0  0  0  0  0  0  0  0  0  0
  -29.5402   -1.8800   -4.1900 C   0  0  0  0  0  0  0  0  0  0  0  0
  -29.1227   -1.9421   -5.6345 C   0  0  0  0  0  0  0  0  0  0  0  0
  -29.1415   -3.1922   -6.2588 C   0  0  0  0  0  0  0  0  0  0  0  0
  -28.7684   -3.3405   -7.5937 C   0  0  0  0  0  0  0  0  0  0  0  0
  -28.3818   -2.2456   -8.3691 C   0  0  0  0  0  0  0  0  0  0  0  0
  -28.3531   -0.9880   -7.7479 C   0  0  0  0  0  0  0  0  0  0  0  0
  -28.7184   -0.8172   -6.3817 C   0  0  0  0  0  0  0  0  0  0  0  0
  -28.6488    0.5806   -5.7940 C   0  0  0  0  0  0  0  0  0  0  0  0
  -27.7446    0.7472   -4.7905 F   0  0  0  0  0  0  0  0  0  0  0  0
  -28.3232    1.5149   -6.7333 F   0  0  0  0  0  0  0  0  0  0  0  0
  -29.8437    0.9816   -5.2759 F   0  0  0  0  0  0  0  0  0  0  0  0
  -22.0522   -0.4273  -14.3325 O   0  0  0  0  0  0  0  0  0  0  0  0
  -21.7225    0.9119  -14.4164 C   0  0  0  0  0  0  0  0  0  0  0  0
  -22.4508    1.9283  -13.8124 C   0  0  0  0  0  0  0  0  0  0  0  0
  -22.0119    3.2245  -13.9959 C   0  0  0  0  0  0  0  0  0  0  0  0
  -20.8922    3.5419  -14.6745 N   0  0  0  0  0  0  0  0  0  0  0  0
  -20.1426    2.5595  -15.1993 C   0  0  0  0  0  0  0  0  0  0  0  0
  -20.5293    1.2249  -15.0898 C   0  0  0  0  0  0  0  0  0  0  0  0
  -18.9398    2.8851  -15.8625 N   0  0  0  0  0  0  0  0  0  0  0  0
  -17.6864    2.5126  -15.4010 C   0  0  0  0  0  0  0  0  0  0  0  0
  -17.4359    1.8907  -14.3786 O   0  0  0  0  0  0  0  0  0  0  0  0
  -19.0007    3.4064  -16.7201 H   0  0  0  0  0  0  0  0  0  0  0  0
  -16.5010    2.9039  -16.2259 C   0  0  0  0  0  0  0  0  0  0  0  0
  -15.1250    3.1248  -15.6552 C   0  0  0  0  0  0  0  0  0  0  0  0
  -15.8914    4.2814  -16.2333 C   0  0  0  0  0  0  0  0  0  0  0  0
 14 15  1  0  0  0
 15 16  1  0  0  0
 15 20  2  0  0  0
 16 17  2  0  0  0
 17 18  1  0  0  0
 18  8  1  0  0  0
 18 19  2  0  0  0
  8  9  1  0  0  0
  8 12  1  0  0  0
  9 10  2  0  0  0
  9 11  1  0  0  0
 11  1  1  0  0  0
 11 13  1  0  0  0
  1  2  1  0  0  0
  1  6  2  0  0  0
  2  3  2  0  0  0
  3  4  1  0  0  0
  4 25  1  0  0  0
  4  5  2  0  0  0
 25 26  1  0  0  0
 26 27  1  0  0  0
 26 31  2  0  0  0
 27 28  2  0  0  0
 28 29  1  0  0  0
 29 30  2  0  0  0
 30 32  1  0  0  0
 30 31  1  0  0  0
 32 33  1  0  0  0
 32 35  1  0  0  0
 33 34  2  0  0  0
 33 36  1  0  0  0
 36 37  1  0  0  0
 36 38  1  0  0  0
 37 38  1  0  0  0
  5  6  1  0  0  0
  6  7  1  0  0  0
 19 20  1  0  0  0
 20 21  1  0  0  0
 21 22  1  0  0  0
 21 23  1  0  0  0
 21 24  1  0  0  0
M  END
> <minimizedAffinity>
-12.19860

$$$$
