CHEMBL3690524


 34 37  0  0  0  0  0  0  0  0999 V2000
  -28.0403   11.5406  -14.4431 C   0  0  0  0  0  0  0  0  0  0  0  0
  -27.8068   11.2404  -15.8606 C   0  0  0  0  0  0  0  0  0  0  0  0
  -26.5588   11.2184  -16.3509 C   0  0  0  0  0  0  0  0  0  0  0  0
  -25.4808   11.5337  -15.5214 N   0  0  0  0  0  0  0  0  0  0  0  0
  -24.1197   11.6614  -15.7907 C   0  0  0  0  0  0  0  0  0  0  0  0
  -23.5552   11.8690  -14.5409 C   0  0  0  0  0  0  0  0  0  0  0  0
  -24.4982   11.9655  -13.5540 N   0  0  0  0  0  0  0  0  0  0  0  0
  -25.6496   11.8045  -14.1663 C   0  0  0  0  0  0  0  0  0  0  0  0
  -26.9787   11.8331  -13.6526 C   0  0  0  0  0  0  0  0  0  0  0  0
  -30.8983   12.4686  -10.6328 C   0  0  0  0  0  0  0  0  0  0  0  0
  -30.7764   11.9789  -12.0430 C   0  0  0  0  0  0  0  0  0  0  0  0
  -29.5311   11.9159  -12.5846 N   0  0  0  0  0  0  0  0  0  0  0  0
  -29.4131   11.5122  -13.8787 C   0  0  0  0  0  0  0  0  0  0  0  0
  -30.5267   11.1862  -14.6546 C   0  0  0  0  0  0  0  0  0  0  0  0
  -31.7952   11.2441  -14.0826 C   0  0  0  0  0  0  0  0  0  0  0  0
  -31.9155   11.6450  -12.7631 C   0  0  0  0  0  0  0  0  0  0  0  0
  -33.1321   11.7240  -12.2025 F   0  0  0  0  0  0  0  0  0  0  0  0
  -23.4808   11.6394  -17.1128 C   0  0  0  0  0  0  0  0  0  0  0  0
  -24.2477   11.7993  -18.2751 C   0  0  0  0  0  0  0  0  0  0  0  0
  -23.6579   11.7977  -19.5306 C   0  0  0  0  0  0  0  0  0  0  0  0
  -22.2788   11.6838  -19.6417 C   0  0  0  0  0  0  0  0  0  0  0  0
  -21.4750   11.5416  -18.5078 C   0  0  0  0  0  0  0  0  0  0  0  0
  -22.0815   11.5281  -17.2428 C   0  0  0  0  0  0  0  0  0  0  0  0
  -20.0657   11.4167  -18.5967 N   0  0  0  0  0  0  0  0  0  0  0  0
  -19.3715   11.0756  -19.7344 C   0  0  0  0  0  0  0  0  0  0  0  0
  -19.8389   10.7892  -20.8290 O   0  0  0  0  0  0  0  0  0  0  0  0
  -18.0122   11.0081  -19.5214 N   0  0  0  0  0  0  0  0  0  0  0  0
  -19.5485   11.4131  -17.7294 H   0  0  0  0  0  0  0  0  0  0  0  0
  -17.6321   11.6620  -18.8567 H   0  0  0  0  0  0  0  0  0  0  0  0
  -17.1679   10.6552  -20.6757 C   0  0  0  0  0  0  0  0  0  0  0  0
  -16.2762    9.4165  -20.5041 C   0  0  0  0  0  0  0  0  0  0  0  0
  -15.0599    9.5815  -21.0733 F   0  0  0  0  0  0  0  0  0  0  0  0
  -16.0604    9.1875  -19.1837 F   0  0  0  0  0  0  0  0  0  0  0  0
  -16.8343    8.3007  -21.0174 F   0  0  0  0  0  0  0  0  0  0  0  0
 10 11  1  0  0  0
 11 12  1  0  0  0
 11 16  2  0  0  0
 12 13  2  0  0  0
 13  1  1  0  0  0
 13 14  1  0  0  0
  1  2  1  0  0  0
  1  9  2  0  0  0
  2  3  2  0  0  0
  3  4  1  0  0  0
  4  5  1  0  0  0
  4  8  1  0  0  0
  5 18  1  0  0  0
  5  6  2  0  0  0
 18 19  1  0  0  0
 18 23  2  0  0  0
 19 20  2  0  0  0
 20 21  1  0  0  0
 21 22  2  0  0  0
 22 24  1  0  0  0
 22 23  1  0  0  0
 24 25  1  0  0  0
 24 28  1  0  0  0
 25 26  2  0  0  0
 25 27  1  0  0  0
 27 30  1  0  0  0
 27 29  1  0  0  0
 30 31  1  0  0  0
 31 32  1  0  0  0
 31 33  1  0  0  0
 31 34  1  0  0  0
  6  7  1  0  0  0
  7  8  2  0  0  0
  8  9  1  0  0  0
 14 15  2  0  0  0
 15 16  1  0  0  0
 16 17  1  0  0  0
M  END
> <minimizedAffinity>
-6.03173

$$$$
