CHEMBL4520064


 43 47  0  0  0  0  0  0  0  0999 V2000
  -21.9221    0.6896  -13.8955 C   0  0  0  0  0  0  0  0  0  0  0  0
  -21.6083   -0.7450  -14.2141 N   0  0  0  0  0  0  0  0  0  0  0  0
  -20.8231   -1.0475  -15.2416 C   0  0  0  0  0  0  0  0  0  0  0  0
  -20.5103   -0.0617  -16.0333 N   0  0  0  0  0  0  0  0  0  0  0  0
  -20.2945    1.1769  -15.4710 C   0  0  0  0  0  0  0  0  0  0  0  0
  -19.1081    1.2170  -14.9848 C   0  0  0  0  0  0  0  0  0  0  0  0
  -18.0311    2.5219  -15.0201 C   0  0  0  0  0  0  0  0  0  0  0  0
  -17.7016    3.9918  -15.4327 C   0  0  0  0  0  0  0  0  0  0  0  0
  -19.4941    3.4714  -15.1117 C   0  0  0  0  0  0  0  0  0  0  0  0
  -20.7362    2.0308  -14.4900 C   0  0  0  0  0  0  0  0  0  0  0  0
  -16.2020    4.3495  -16.6433 O   0  0  0  0  0  0  0  0  0  0  0  0
  -14.4582    5.3188  -17.1691 C   0  0  0  0  0  0  0  0  0  0  0  0
  -12.5271    6.1314  -17.2482 C   0  0  0  0  0  0  0  0  0  0  0  0
  -11.2963    5.8920  -16.3342 O   0  0  0  0  0  0  0  0  0  0  0  0
  -11.8632    5.4995  -15.1789 C   0  0  0  0  0  0  0  0  0  0  0  0
  -11.8629    4.1101  -15.7227 C   0  0  0  0  0  0  0  0  0  0  0  0
  -13.1754    3.9879  -15.5678 O   0  0  0  0  0  0  0  0  0  0  0  0
  -13.4573    2.7811  -16.1148 C   0  0  0  0  0  0  0  0  0  0  0  0
  -14.5194    2.9091  -15.2197 C   0  0  0  0  0  0  0  0  0  0  0  0
  -14.9274    1.6860  -15.7474 O   0  0  0  0  0  0  0  0  0  0  0  0
  -15.9571    1.7100  -14.9794 C   0  0  0  0  0  0  0  0  0  0  0  0
  -16.8426    0.7435  -14.5011 C   0  0  0  0  0  0  0  0  0  0  0  0
  -17.5092    1.8631  -13.7498 O   0  0  0  0  0  0  0  0  0  0  0  0
  -23.4032    0.2951  -12.9498 N   0  0  0  0  0  0  0  0  0  0  0  0
  -23.6960    1.3068  -12.8253 H   0  0  0  0  0  0  0  0  0  0  0  0
  -27.4437   -1.6538  -10.1467 C   0  0  0  0  0  0  0  0  0  0  0  0
  -26.0476   -1.6104   -9.8663 C   0  0  0  0  0  0  0  0  0  0  0  0
  -24.7780   -1.0009  -10.7493 C   0  0  0  0  0  0  0  0  0  0  0  0
  -24.7906   -0.3794  -12.0357 C   0  0  0  0  0  0  0  0  0  0  0  0
  -26.3555   -0.5572  -12.3727 C   0  0  0  0  0  0  0  0  0  0  0  0
  -27.6069   -1.1538  -11.4248 C   0  0  0  0  0  0  0  0  0  0  0  0
  -28.3859   -2.2003   -9.2577 O   0  0  0  0  0  0  0  0  0  0  0  0
  -28.1980   -2.2013   -7.7830 C   0  0  0  0  0  0  0  0  0  0  0  0
  -30.5433   -4.9678   -5.2361 C   0  0  0  0  0  0  0  0  0  0  0  0
  -29.9696   -5.4130   -6.4327 C   0  0  0  0  0  0  0  0  0  0  0  0
  -29.2437   -4.5225   -7.2526 C   0  0  0  0  0  0  0  0  0  0  0  0
  -29.1049   -3.1477   -6.9274 C   0  0  0  0  0  0  0  0  0  0  0  0
  -29.7060   -2.7202   -5.7358 C   0  0  0  0  0  0  0  0  0  0  0  0
  -30.3813   -3.6193   -4.8861 C   0  0  0  0  0  0  0  0  0  0  0  0
  -30.5631   -6.6649   -3.5279 F   0  0  0  0  0  0  0  0  0  0  0  0
  -31.3368   -5.8913   -4.3408 C   0  0  0  0  0  0  0  0  0  0  0  0
  -32.1140   -6.7606   -5.0470 F   0  0  0  0  0  0  0  0  0  0  0  0
  -32.1880   -5.2201   -3.5155 F   0  0  0  0  0  0  0  0  0  0  0  0
 40 41  1  0  0  0
 41 42  1  0  0  0
 41 43  1  0  0  0
 41 34  1  0  0  0
 34 35  1  0  0  0
 34 39  2  0  0  0
 35 36  2  0  0  0
 36 37  1  0  0  0
 37 33  1  0  0  0
 37 38  2  0  0  0
 33 32  1  0  0  0
 32 26  1  0  0  0
 26 27  1  0  0  0
 26 31  2  0  0  0
 27 28  2  0  0  0
 28 29  1  0  0  0
 29 24  1  0  0  0
 29 30  2  0  0  0
 24  1  1  0  0  0
 24 25  1  0  0  0
  1  2  1  0  0  0
  1 10  2  0  0  0
  2  3  2  0  0  0
  3  4  1  0  0  0
  4  5  2  0  0  0
  5  6  1  0  0  0
  5 10  1  0  0  0
  6  7  2  0  0  0
  7  8  1  0  0  0
  7 23  1  0  0  0
  8  9  2  0  0  0
  8 11  1  0  0  0
  9 10  1  0  0  0
 11 12  1  0  0  0
 12 13  1  0  0  0
 13 14  1  0  0  0
 14 15  1  0  0  0
 15 16  1  0  0  0
 16 17  1  0  0  0
 17 18  1  0  0  0
 18 19  1  0  0  0
 19 20  1  0  0  0
 20 21  1  0  0  0
 21 22  1  0  0  0
 22 23  1  0  0  0
 30 31  1  0  0  0
 38 39  1  0  0  0
M  END
> <minimizedAffinity>
-8.36846

$$$$
