CHEMBL3919069


 34 36  0  0  0  0  0  0  0  0999 V2000
  -24.5482   -0.7443  -13.6721 C   0  0  0  0  0  0  0  0  0  0  0  0
  -25.4526   -0.9381  -14.7202 C   0  0  0  0  0  0  0  0  0  0  0  0
  -26.6247   -1.6514  -14.4995 C   0  0  0  0  0  0  0  0  0  0  0  0
  -26.8961   -2.1682  -13.2336 C   0  0  0  0  0  0  0  0  0  0  0  0
  -26.0094   -1.9924  -12.1663 C   0  0  0  0  0  0  0  0  0  0  0  0
  -24.8236   -1.2700  -12.3968 C   0  0  0  0  0  0  0  0  0  0  0  0
  -26.2630   -2.4998  -10.8628 N   0  0  0  0  0  0  0  0  0  0  0  0
  -27.1891   -1.9912   -9.9648 C   0  0  0  0  0  0  0  0  0  0  0  0
  -27.9881   -1.0882  -10.2065 O   0  0  0  0  0  0  0  0  0  0  0  0
  -27.1090   -2.5943   -8.7191 N   0  0  0  0  0  0  0  0  0  0  0  0
  -25.8176   -3.3700  -10.6106 H   0  0  0  0  0  0  0  0  0  0  0  0
  -26.1693   -2.8088   -8.4132 H   0  0  0  0  0  0  0  0  0  0  0  0
  -27.9994   -2.2017   -7.6790 C   0  0  0  0  0  0  0  0  0  0  0  0
  -27.8979   -0.9535   -7.0523 C   0  0  0  0  0  0  0  0  0  0  0  0
  -28.7635   -0.6177   -6.0075 C   0  0  0  0  0  0  0  0  0  0  0  0
  -29.7242   -1.5303   -5.5711 C   0  0  0  0  0  0  0  0  0  0  0  0
  -29.8268   -2.7774   -6.1886 C   0  0  0  0  0  0  0  0  0  0  0  0
  -28.9778   -3.0963   -7.2471 C   0  0  0  0  0  0  0  0  0  0  0  0
  -29.0664   -4.3099   -7.8138 F   0  0  0  0  0  0  0  0  0  0  0  0
  -22.3514    0.6319  -14.1326 C   0  0  0  0  0  0  0  0  0  0  0  0
  -23.3401   -0.0265  -13.9493 C   0  0  0  0  0  0  0  0  0  0  0  0
  -18.9041    1.8352  -14.9728 C   0  0  0  0  0  0  0  0  0  0  0  0
  -19.1569    3.1998  -14.8973 C   0  0  0  0  0  0  0  0  0  0  0  0
  -20.3669    3.7314  -14.5869 N   0  0  0  0  0  0  0  0  0  0  0  0
  -21.3657    2.8512  -14.3462 C   0  0  0  0  0  0  0  0  0  0  0  0
  -21.2202    1.4691  -14.3970 C   0  0  0  0  0  0  0  0  0  0  0  0
  -19.9600    0.9507  -14.7059 C   0  0  0  0  0  0  0  0  0  0  0  0
  -17.5387    1.3768  -15.3514 C   0  0  0  0  0  0  0  0  0  0  0  0
  -16.9575    2.0322  -16.2127 O   0  0  0  0  0  0  0  0  0  0  0  0
  -14.5507    0.9689  -13.9853 C   0  0  0  0  0  0  0  0  0  0  0  0
  -16.1062    0.1960  -13.5782 S   0  0  0  0  0  0  0  0  0  0  0  0
  -15.5999   -1.4870  -13.3098 C   0  0  0  0  0  0  0  0  0  0  0  0
  -16.5238    0.7133  -12.2901 O   0  0  0  0  0  0  0  0  0  0  0  0
  -17.0016    0.1832  -14.8365 N   0  0  0  0  0  0  0  0  0  0  0  0
 30 31  1  0  0  0
 31 32  1  0  0  0
 31 33  2  0  0  0
 31 34  2  0  0  0
 34 28  1  0  0  0
 28 29  2  0  0  0
 28 22  1  0  0  0
 22 23  1  0  0  0
 22 27  2  0  0  0
 23 24  2  0  0  0
 24 25  1  0  0  0
 25 26  2  0  0  0
 26 20  1  0  0  0
 26 27  1  0  0  0
 20 21  3  0  0  0
 21  1  1  0  0  0
  1  2  1  0  0  0
  1  6  2  0  0  0
  2  3  2  0  0  0
  3  4  1  0  0  0
  4  5  2  0  0  0
  5  7  1  0  0  0
  5  6  1  0  0  0
  7  8  1  0  0  0
  7 11  1  0  0  0
  8  9  2  0  0  0
  8 10  1  0  0  0
 10 13  1  0  0  0
 10 12  1  0  0  0
 13 14  1  0  0  0
 13 18  2  0  0  0
 14 15  2  0  0  0
 15 16  1  0  0  0
 16 17  2  0  0  0
 17 18  1  0  0  0
 18 19  1  0  0  0
M  END
> <minimizedAffinity>
-11.63497

$$$$
