CHEMBL215152


 41 44  0  0  0  0  0  0  0  0999 V2000
  -14.7363   -0.4456  -13.8086 C   0  0  0  0  0  0  0  0  0  0  0  0
  -15.8313   -0.0334  -13.0546 C   0  0  0  0  0  0  0  0  0  0  0  0
  -16.6044    1.0402  -13.4879 C   0  0  0  0  0  0  0  0  0  0  0  0
  -16.2897    1.7252  -14.6749 C   0  0  0  0  0  0  0  0  0  0  0  0
  -17.0000    2.8234  -15.1719 C   0  0  0  0  0  0  0  0  0  0  0  0
  -16.6766    3.4067  -16.3379 N   0  0  0  0  0  0  0  0  0  0  0  0
  -15.6212    2.9092  -16.9993 C   0  0  0  0  0  0  0  0  0  0  0  0
  -14.8598    1.8806  -16.6015 N   0  0  0  0  0  0  0  0  0  0  0  0
  -15.1923    1.2972  -15.4520 C   0  0  0  0  0  0  0  0  0  0  0  0
  -14.4423    0.2207  -15.0020 C   0  0  0  0  0  0  0  0  0  0  0  0
  -18.1312    3.3002  -14.4504 N   0  0  0  0  0  0  0  0  0  0  0  0
  -18.1246    4.3087  -14.3897 H   0  0  0  0  0  0  0  0  0  0  0  0
  -19.3729    2.7858  -14.4307 C   0  0  0  0  0  0  0  0  0  0  0  0
  -19.7010    1.4184  -14.2832 C   0  0  0  0  0  0  0  0  0  0  0  0
  -21.0527    1.3367  -14.5186 C   0  0  0  0  0  0  0  0  0  0  0  0
  -21.4742    2.6370  -14.6301 N   0  0  0  0  0  0  0  0  0  0  0  0
  -20.4752    3.5354  -14.5628 N   0  0  0  0  0  0  0  0  0  0  0  0
  -22.4185    2.9691  -14.8163 H   0  0  0  0  0  0  0  0  0  0  0  0
  -21.9144    0.1387  -14.7249 C   0  0  0  0  0  0  0  0  0  0  0  0
  -23.1506    0.1229  -13.8294 C   0  0  0  0  0  0  0  0  0  0  0  0
  -23.5450    1.1305  -13.2405 O   0  0  0  0  0  0  0  0  0  0  0  0
  -23.7389   -1.1240  -13.7287 N   0  0  0  0  0  0  0  0  0  0  0  0
  -23.1305   -1.9224  -13.8689 H   0  0  0  0  0  0  0  0  0  0  0  0
  -24.8771   -1.3311  -12.9264 C   0  0  0  0  0  0  0  0  0  0  0  0
  -24.7295   -1.2786  -11.5377 C   0  0  0  0  0  0  0  0  0  0  0  0
  -25.8438   -1.4337  -10.7107 C   0  0  0  0  0  0  0  0  0  0  0  0
  -27.0924   -1.7022  -11.2699 C   0  0  0  0  0  0  0  0  0  0  0  0
  -27.2218   -1.7895  -12.6518 C   0  0  0  0  0  0  0  0  0  0  0  0
  -28.4170   -2.0794  -13.1822 F   0  0  0  0  0  0  0  0  0  0  0  0
  -26.1298   -1.5882  -13.4880 C   0  0  0  0  0  0  0  0  0  0  0  0
  -13.9029   -1.4847  -13.4741 O   0  0  0  0  0  0  0  0  0  0  0  0
  -13.5166   -2.3163  -14.5677 C   0  0  0  0  0  0  0  0  0  0  0  0
  -13.4895   -3.7745  -14.1329 C   0  0  0  0  0  0  0  0  0  0  0  0
  -14.9049   -4.2860  -13.8132 C   0  0  0  0  0  0  0  0  0  0  0  0
  -15.0900   -4.8180  -12.4400 N   0  0  0  0  0  0  0  0  0  0  0  0
  -15.9920   -3.0380  -10.8408 C   0  0  0  0  0  0  0  0  0  0  0  0
  -16.2755   -4.1755  -11.8175 C   0  0  0  0  0  0  0  0  0  0  0  0
  -15.2381   -6.2986  -12.4579 C   0  0  0  0  0  0  0  0  0  0  0  0
  -15.0264   -6.9757  -13.8292 C   0  0  0  0  0  0  0  0  0  0  0  0
  -16.2619   -7.1977  -14.5011 O   0  0  0  0  0  0  0  0  0  0  0  0
  -16.8359   -7.6527  -13.8587 H   0  0  0  0  0  0  0  0  0  0  0  0
 36 37  1  0  0  0
 37 35  1  0  0  0
 35 38  1  0  0  0
 35 34  1  0  0  0
 38 39  1  0  0  0
 39 40  1  0  0  0
 40 41  1  0  0  0
 34 33  1  0  0  0
 33 32  1  0  0  0
 32 31  1  0  0  0
 31  1  1  0  0  0
  1  2  1  0  0  0
  1 10  2  0  0  0
  2  3  2  0  0  0
  3  4  1  0  0  0
  4  5  1  0  0  0
  4  9  2  0  0  0
  5 11  1  0  0  0
  5  6  2  0  0  0
 11 13  1  0  0  0
 11 12  1  0  0  0
 13 14  1  0  0  0
 13 17  2  0  0  0
 14 15  2  0  0  0
 15 19  1  0  0  0
 15 16  1  0  0  0
 19 20  1  0  0  0
 20 21  2  0  0  0
 20 22  1  0  0  0
 22 24  1  0  0  0
 22 23  1  0  0  0
 24 25  1  0  0  0
 24 30  2  0  0  0
 25 26  2  0  0  0
 26 27  1  0  0  0
 27 28  2  0  0  0
 28 29  1  0  0  0
 28 30  1  0  0  0
 16 17  1  0  0  0
 16 18  1  0  0  0
  6  7  1  0  0  0
  7  8  2  0  0  0
  8  9  1  0  0  0
  9 10  1  0  0  0
M  END
> <minimizedAffinity>
-8.94948

$$$$
