CHEMBL468829


 32 36  0  0  0  0  0  0  0  0999 V2000
  -28.6778   -1.2281   -5.9308 C   0  0  0  0  0  0  0  0  0  0  0  0
  -29.5830   -0.5538   -5.0981 C   0  0  0  0  0  0  0  0  0  0  0  0
  -29.9352    0.7738   -5.3719 C   0  0  0  0  0  0  0  0  0  0  0  0
  -29.3704    1.4173   -6.4684 C   0  0  0  0  0  0  0  0  0  0  0  0
  -28.5359    0.7095   -7.3425 C   0  0  0  0  0  0  0  0  0  0  0  0
  -28.2449   -0.6390   -7.1497 C   0  0  0  0  0  0  0  0  0  0  0  0
  -26.7541   -2.3792   -5.2198 O   0  0  0  0  0  0  0  0  0  0  0  0
  -27.9719   -2.3994   -5.3565 C   0  0  0  0  0  0  0  0  0  0  0  0
  -28.7355   -3.5172   -4.8305 C   0  0  0  0  0  0  0  0  0  0  0  0
  -28.5824   -3.9357   -3.5154 C   0  0  0  0  0  0  0  0  0  0  0  0
  -29.4248   -4.9954   -3.3609 N   0  0  0  0  0  0  0  0  0  0  0  0
  -29.5817   -5.5780   -4.5940 C   0  0  0  0  0  0  0  0  0  0  0  0
  -29.7652   -6.9040   -4.9884 C   0  0  0  0  0  0  0  0  0  0  0  0
  -29.9810   -7.1073   -6.3488 C   0  0  0  0  0  0  0  0  0  0  0  0
  -29.9836   -8.3591   -6.8278 F   0  0  0  0  0  0  0  0  0  0  0  0
  -30.1813   -6.0459   -7.2266 C   0  0  0  0  0  0  0  0  0  0  0  0
  -29.9759   -4.7241   -6.8053 C   0  0  0  0  0  0  0  0  0  0  0  0
  -29.5053   -4.5129   -5.4932 C   0  0  0  0  0  0  0  0  0  0  0  0
  -29.8536   -5.2989   -2.4939 H   0  0  0  0  0  0  0  0  0  0  0  0
  -27.4111   -1.2691   -8.1061 N   0  0  0  0  0  0  0  0  0  0  0  0
  -26.6427   -0.6638   -8.3836 H   0  0  0  0  0  0  0  0  0  0  0  0
  -27.9874   -1.9521   -9.2555 C   0  0  0  0  0  0  0  0  0  0  0  0
  -27.1188   -1.7539  -10.4933 C   0  0  0  0  0  0  0  0  0  0  0  0
  -27.7095   -1.7335  -11.7658 C   0  0  0  0  0  0  0  0  0  0  0  0
  -26.9387   -1.5925  -12.9274 C   0  0  0  0  0  0  0  0  0  0  0  0
  -25.5524   -1.4231  -12.7976 C   0  0  0  0  0  0  0  0  0  0  0  0
  -24.4572   -1.2660  -13.6751 C   0  0  0  0  0  0  0  0  0  0  0  0
  -23.3001   -1.0946  -13.0293 N   0  0  0  0  0  0  0  0  0  0  0  0
  -23.6555   -1.1538  -11.7324 N   0  0  0  0  0  0  0  0  0  0  0  0
  -24.9906   -1.3921  -11.5274 C   0  0  0  0  0  0  0  0  0  0  0  0
  -25.7346   -1.5721  -10.3570 C   0  0  0  0  0  0  0  0  0  0  0  0
  -22.9405   -1.0083  -11.0315 H   0  0  0  0  0  0  0  0  0  0  0  0
  7  8  2  0  0  0
  8  1  1  0  0  0
  8  9  1  0  0  0
  1  2  1  0  0  0
  1  6  2  0  0  0
  2  3  2  0  0  0
  3  4  1  0  0  0
  4  5  2  0  0  0
  5  6  1  0  0  0
  6 20  1  0  0  0
 20 22  1  0  0  0
 20 21  1  0  0  0
 22 23  1  0  0  0
 23 24  1  0  0  0
 23 31  2  0  0  0
 24 25  2  0  0  0
 25 26  1  0  0  0
 26 27  1  0  0  0
 26 30  2  0  0  0
 27 28  2  0  0  0
 28 29  1  0  0  0
 29 30  1  0  0  0
 29 32  1  0  0  0
 30 31  1  0  0  0
  9 10  2  0  0  0
  9 18  1  0  0  0
 10 11  1  0  0  0
 11 12  1  0  0  0
 11 19  1  0  0  0
 12 13  1  0  0  0
 12 18  2  0  0  0
 13 14  2  0  0  0
 14 15  1  0  0  0
 14 16  1  0  0  0
 16 17  2  0  0  0
 17 18  1  0  0  0
M  END
> <minimizedAffinity>
-10.22140

$$$$
