CHEMBL3628799


 34 38  0  0  0  0  0  0  0  0999 V2000
  -25.2738   -1.1551  -12.3647 C   0  0  0  0  0  0  0  0  0  0  0  0
  -24.9305   -1.2703  -11.0179 C   0  0  0  0  0  0  0  0  0  0  0  0
  -25.8690   -1.6688  -10.0740 C   0  0  0  0  0  0  0  0  0  0  0  0
  -27.1895   -1.9132  -10.4453 C   0  0  0  0  0  0  0  0  0  0  0  0
  -27.5373   -1.8236  -11.7957 C   0  0  0  0  0  0  0  0  0  0  0  0
  -26.5931   -1.4197  -12.7482 C   0  0  0  0  0  0  0  0  0  0  0  0
  -23.4543    1.0857  -12.3682 O   0  0  0  0  0  0  0  0  0  0  0  0
  -23.4850    0.2896  -13.2973 C   0  0  0  0  0  0  0  0  0  0  0  0
  -24.3364   -0.8070  -13.3620 N   0  0  0  0  0  0  0  0  0  0  0  0
  -22.6415    0.3341  -14.3938 N   0  0  0  0  0  0  0  0  0  0  0  0
  -24.1501   -1.5075  -14.0646 H   0  0  0  0  0  0  0  0  0  0  0  0
  -22.8356   -0.2953  -15.1511 H   0  0  0  0  0  0  0  0  0  0  0  0
  -21.5655    1.2396  -14.5691 C   0  0  0  0  0  0  0  0  0  0  0  0
  -21.6949    2.6334  -14.5314 C   0  0  0  0  0  0  0  0  0  0  0  0
  -20.5850    3.4627  -14.6963 C   0  0  0  0  0  0  0  0  0  0  0  0
  -19.3220    2.9071  -14.8899 C   0  0  0  0  0  0  0  0  0  0  0  0
  -19.1855    1.5233  -14.9211 C   0  0  0  0  0  0  0  0  0  0  0  0
  -17.4720    0.7618  -15.1697 Br  0  0  0  0  0  0  0  0  0  0  0  0
  -20.2946    0.6887  -14.7625 C   0  0  0  0  0  0  0  0  0  0  0  0
  -28.1444   -2.3247   -9.4956 N   0  0  0  0  0  0  0  0  0  0  0  0
  -28.3805   -3.2973   -9.6251 H   0  0  0  0  0  0  0  0  0  0  0  0
  -28.1253   -1.9377   -8.1411 C   0  0  0  0  0  0  0  0  0  0  0  0
  -27.9235   -0.6269   -7.8488 N   0  0  0  0  0  0  0  0  0  0  0  0
  -27.9387   -0.2155   -6.5803 C   0  0  0  0  0  0  0  0  0  0  0  0
  -28.1733   -0.9567   -5.5047 N   0  0  0  0  0  0  0  0  0  0  0  0
  -28.3781   -2.2501   -5.8048 C   0  0  0  0  0  0  0  0  0  0  0  0
  -28.7244   -3.3620   -4.5645 S   0  0  0  0  0  0  0  0  0  0  0  0
  -28.7832   -4.6537   -5.6614 C   0  0  0  0  0  0  0  0  0  0  0  0
  -28.5545   -4.2635   -6.9694 C   0  0  0  0  0  0  0  0  0  0  0  0
  -28.3512   -2.8309   -7.0686 C   0  0  0  0  0  0  0  0  0  0  0  0
  -28.4931   -5.2784   -8.0769 C   0  0  0  0  0  0  0  0  0  0  0  0
  -29.1018   -6.6273   -7.6724 C   0  0  0  0  0  0  0  0  0  0  0  0
  -28.6432   -7.0615   -6.2765 C   0  0  0  0  0  0  0  0  0  0  0  0
  -29.0782   -6.0505   -5.2083 C   0  0  0  0  0  0  0  0  0  0  0  0
  7  8  2  0  0  0
  8  9  1  0  0  0
  8 10  1  0  0  0
  9  1  1  0  0  0
  9 11  1  0  0  0
  1  2  1  0  0  0
  1  6  2  0  0  0
  2  3  2  0  0  0
  3  4  1  0  0  0
  4 20  1  0  0  0
  4  5  2  0  0  0
 20 22  1  0  0  0
 20 21  1  0  0  0
 22 23  1  0  0  0
 22 30  2  0  0  0
 23 24  2  0  0  0
 24 25  1  0  0  0
 25 26  2  0  0  0
 26 27  1  0  0  0
 26 30  1  0  0  0
 27 28  1  0  0  0
 28 29  2  0  0  0
 28 34  1  0  0  0
 29 30  1  0  0  0
 29 31  1  0  0  0
 31 32  1  0  0  0
 32 33  1  0  0  0
 33 34  1  0  0  0
  5  6  1  0  0  0
 10 13  1  0  0  0
 10 12  1  0  0  0
 13 14  1  0  0  0
 13 19  2  0  0  0
 14 15  2  0  0  0
 15 16  1  0  0  0
 16 17  2  0  0  0
 17 18  1  0  0  0
 17 19  1  0  0  0
M  END
> <minimizedAffinity>
-10.68839

$$$$
