CHEMBL1242657


 27 30  0  0  0  0  0  0  0  0999 V2000
  -32.9745   -7.9218   -6.1912 N   0  0  0  0  0  0  0  0  0  0  0  0
  -32.2171   -8.7215   -7.0313 C   0  0  0  0  0  0  0  0  0  0  0  0
  -32.7913   -9.8886   -7.3907 N   0  0  0  0  0  0  0  0  0  0  0  0
  -32.1126  -10.7221   -8.1989 C   0  0  0  0  0  0  0  0  0  0  0  0
  -30.8869  -10.5510   -8.7124 N   0  0  0  0  0  0  0  0  0  0  0  0
  -30.3519   -9.3769   -8.3342 C   0  0  0  0  0  0  0  0  0  0  0  0
  -30.9356   -8.4190   -7.5170 C   0  0  0  0  0  0  0  0  0  0  0  0
  -29.9658   -7.3659   -7.4488 C   0  0  0  0  0  0  0  0  0  0  0  0
  -28.8487   -7.6896   -8.1293 N   0  0  0  0  0  0  0  0  0  0  0  0
  -29.1254   -8.8869   -8.6894 N   0  0  0  0  0  0  0  0  0  0  0  0
  -33.7672   -8.4301   -5.8156 H   0  0  0  0  0  0  0  0  0  0  0  0
  -32.4668   -7.3448   -5.5348 H   0  0  0  0  0  0  0  0  0  0  0  0
  -30.0505   -6.0699   -6.7633 C   0  0  0  0  0  0  0  0  0  0  0  0
  -29.9744   -4.8687   -7.4949 C   0  0  0  0  0  0  0  0  0  0  0  0
  -30.0324   -3.6294   -6.8463 C   0  0  0  0  0  0  0  0  0  0  0  0
  -30.1536   -3.5902   -5.4645 C   0  0  0  0  0  0  0  0  0  0  0  0
  -30.1840   -2.4127   -4.8247 F   0  0  0  0  0  0  0  0  0  0  0  0
  -30.2465   -4.7688   -4.7329 C   0  0  0  0  0  0  0  0  0  0  0  0
  -30.3482   -4.7496   -3.3709 O   0  0  0  0  0  0  0  0  0  0  0  0
  -30.2275   -6.0021   -5.3743 C   0  0  0  0  0  0  0  0  0  0  0  0
  -30.3408   -3.8138   -3.0956 H   0  0  0  0  0  0  0  0  0  0  0  0
  -28.1563   -9.4970   -9.5723 C   0  0  0  0  0  0  0  0  0  0  0  0
  -28.6802   -9.8752  -10.9514 C   0  0  0  0  0  0  0  0  0  0  0  0
  -27.4053   -9.9550  -11.7681 C   0  0  0  0  0  0  0  0  0  0  0  0
  -26.5722   -8.8449  -11.2921 N   0  0  0  0  0  0  0  0  0  0  0  0
  -26.9249   -8.6365   -9.8710 C   0  0  0  0  0  0  0  0  0  0  0  0
  -26.8326   -8.0005  -11.8069 H   0  0  0  0  0  0  0  0  0  0  0  0
  1  2  1  0  0  0
  1 11  1  0  0  0
  1 12  1  0  0  0
  2  3  1  0  0  0
  2  7  2  0  0  0
  3  4  2  0  0  0
  4  5  1  0  0  0
  5  6  2  0  0  0
  6  7  1  0  0  0
  6 10  1  0  0  0
  7  8  1  0  0  0
  8 13  1  0  0  0
  8  9  2  0  0  0
 13 14  1  0  0  0
 13 20  2  0  0  0
 14 15  2  0  0  0
 15 16  1  0  0  0
 16 17  1  0  0  0
 16 18  2  0  0  0
 18 19  1  0  0  0
 18 20  1  0  0  0
 19 21  1  0  0  0
  9 10  1  0  0  0
 22 23  1  0  0  0
 22 26  1  0  0  0
 22 10  1  0  0  0
 23 24  1  0  0  0
 24 25  1  0  0  0
 25 26  1  0  0  0
 25 27  1  0  0  0
M  END
> <minimizedAffinity>
-8.52940

$$$$
