CHEMBL3656048


 33 36  0  0  0  0  0  0  0  0999 V2000
  -18.5925    0.8392  -15.7743 O   0  0  0  0  0  0  0  0  0  0  0  0
  -21.8460    1.4410  -14.1750 C   0  0  0  0  0  0  0  0  0  0  0  0
  -21.7158    2.7844  -13.8152 C   0  0  0  0  0  0  0  0  0  0  0  0
  -20.5917    3.5189  -14.1882 C   0  0  0  0  0  0  0  0  0  0  0  0
  -19.5699    2.9086  -14.9051 C   0  0  0  0  0  0  0  0  0  0  0  0
  -19.6137    1.5350  -15.1542 C   0  0  0  0  0  0  0  0  0  0  0  0
  -20.7659    0.8071  -14.8152 C   0  0  0  0  0  0  0  0  0  0  0  0
  -23.2299   -0.2152  -12.8873 C   0  0  0  0  0  0  0  0  0  0  0  0
  -22.3906   -0.4691  -12.0261 O   0  0  0  0  0  0  0  0  0  0  0  0
  -23.0220    0.6970  -13.9230 N   0  0  0  0  0  0  0  0  0  0  0  0
  -23.8372    0.9195  -14.4805 H   0  0  0  0  0  0  0  0  0  0  0  0
  -24.9894   -1.1014  -15.3846 C   0  0  0  0  0  0  0  0  0  0  0  0
  -25.3495   -1.2321  -13.9356 C   0  0  0  0  0  0  0  0  0  0  0  0
  -26.5927   -1.7989  -13.4968 C   0  0  0  0  0  0  0  0  0  0  0  0
  -26.7155   -1.8175  -12.1295 C   0  0  0  0  0  0  0  0  0  0  0  0
  -25.3477   -1.1596  -11.3588 S   0  0  0  0  0  0  0  0  0  0  0  0
  -24.5603   -0.8387  -12.8540 C   0  0  0  0  0  0  0  0  0  0  0  0
  -17.3266    0.8484  -15.2195 C   0  0  0  0  0  0  0  0  0  0  0  0
  -16.3945    1.8619  -15.4267 C   0  0  0  0  0  0  0  0  0  0  0  0
  -15.1378    1.7190  -14.8649 C   0  0  0  0  0  0  0  0  0  0  0  0
  -14.7795    0.6833  -14.0801 N   0  0  0  0  0  0  0  0  0  0  0  0
  -15.7252   -0.2557  -13.8308 C   0  0  0  0  0  0  0  0  0  0  0  0
  -17.0045   -0.2094  -14.3740 C   0  0  0  0  0  0  0  0  0  0  0  0
  -15.2721   -1.3362  -12.9580 C   0  0  0  0  0  0  0  0  0  0  0  0
  -15.8272   -1.9223  -11.8364 C   0  0  0  0  0  0  0  0  0  0  0  0
  -14.9645   -2.9652  -11.3783 C   0  0  0  0  0  0  0  0  0  0  0  0
  -13.8870   -2.9644  -12.2500 C   0  0  0  0  0  0  0  0  0  0  0  0
  -14.0771   -1.9852  -13.1856 N   0  0  0  0  0  0  0  0  0  0  0  0
  -13.4535   -1.7511  -13.9512 H   0  0  0  0  0  0  0  0  0  0  0  0
  -15.0988   -3.8864  -10.2495 C   0  0  0  0  0  0  0  0  0  0  0  0
  -15.2339   -5.0946  -10.3728 O   0  0  0  0  0  0  0  0  0  0  0  0
  -15.0698   -3.3010   -9.0245 O   0  0  0  0  0  0  0  0  0  0  0  0
  -14.9696   -2.3361   -9.0612 H   0  0  0  0  0  0  0  0  0  0  0  0
 12 13  1  0  0  0
 13 14  1  0  0  0
 13 17  2  0  0  0
 14 15  2  0  0  0
 15 16  1  0  0  0
 16 17  1  0  0  0
 17  8  1  0  0  0
  8  9  2  0  0  0
  8 10  1  0  0  0
 10  2  1  0  0  0
 10 11  1  0  0  0
  2  3  1  0  0  0
  2  7  2  0  0  0
  3  4  2  0  0  0
  4  5  1  0  0  0
  5  6  2  0  0  0
  6  1  1  0  0  0
  6  7  1  0  0  0
  1 18  1  0  0  0
 18 19  1  0  0  0
 18 23  2  0  0  0
 19 20  2  0  0  0
 20 21  1  0  0  0
 21 22  2  0  0  0
 22 24  1  0  0  0
 22 23  1  0  0  0
 24 25  2  0  0  0
 24 28  1  0  0  0
 25 26  1  0  0  0
 26 30  1  0  0  0
 26 27  2  0  0  0
 30 31  2  0  0  0
 30 32  1  0  0  0
 32 33  1  0  0  0
 27 28  1  0  0  0
 28 29  1  0  0  0
M  END
> <minimizedAffinity>
-9.76396

$$$$
