CHEMBL4748292


 28 29  0  0  0  0  0  0  0  0999 V2000
  -30.7535   -7.4839   -6.4247 N   0  0  0  0  0  0  0  0  0  0  0  0
  -31.6154   -7.8419   -6.0437 H   0  0  0  0  0  0  0  0  0  0  0  0
  -30.3082   -6.3669   -5.7298 C   0  0  0  0  0  0  0  0  0  0  0  0
  -30.2004   -6.5153   -4.3999 N   0  0  0  0  0  0  0  0  0  0  0  0
  -30.0039   -5.3948   -3.6717 C   0  0  0  0  0  0  0  0  0  0  0  0
  -29.9147   -4.1384   -4.2187 C   0  0  0  0  0  0  0  0  0  0  0  0
  -29.8519   -2.6109   -3.1248 Br  0  0  0  0  0  0  0  0  0  0  0  0
  -29.9034   -4.1102   -5.5943 C   0  0  0  0  0  0  0  0  0  0  0  0
  -30.1192   -5.1979   -6.3612 N   0  0  0  0  0  0  0  0  0  0  0  0
  -29.7456   -2.8996   -6.2436 O   0  0  0  0  0  0  0  0  0  0  0  0
  -28.4124   -2.7282   -6.7734 C   0  0  0  0  0  0  0  0  0  0  0  0
  -27.9924   -1.2831   -6.5002 C   0  0  0  0  0  0  0  0  0  0  0  0
  -28.4164   -3.0323   -8.2851 C   0  0  0  0  0  0  0  0  0  0  0  0
  -27.5613   -2.0647   -9.0909 C   0  0  0  0  0  0  0  0  0  0  0  0
  -27.9454   -4.3640   -8.5426 O   0  0  0  0  0  0  0  0  0  0  0  0
  -27.0625   -4.4272   -8.1375 H   0  0  0  0  0  0  0  0  0  0  0  0
  -28.9293   -9.6027   -9.5590 C   0  0  0  0  0  0  0  0  0  0  0  0
  -30.2371   -9.9127   -9.1786 C   0  0  0  0  0  0  0  0  0  0  0  0
  -30.8341   -9.2242   -8.1232 C   0  0  0  0  0  0  0  0  0  0  0  0
  -30.1548   -8.1971   -7.4619 C   0  0  0  0  0  0  0  0  0  0  0  0
  -28.8402   -7.8989   -7.8516 C   0  0  0  0  0  0  0  0  0  0  0  0
  -28.2182   -8.6071   -8.8872 C   0  0  0  0  0  0  0  0  0  0  0  0
  -28.1429  -10.5216  -10.8707 S   0  0  0  0  0  0  0  0  0  0  0  0
  -26.6861  -10.0181  -10.9464 N   0  0  0  0  0  0  0  0  0  0  0  0
  -29.0514  -10.4936  -12.0007 O   0  0  0  0  0  0  0  0  0  0  0  0
  -26.2210  -10.3785  -11.7802 H   0  0  0  0  0  0  0  0  0  0  0  0
  -27.3142  -12.2931   -8.9555 C   0  0  0  0  0  0  0  0  0  0  0  0
  -28.1257  -12.1877  -10.2336 C   0  0  0  0  0  0  0  0  0  0  0  0
 27 28  1  0  0  0
 28 23  1  0  0  0
 23 24  2  0  0  0
 23 25  2  0  0  0
 23 17  1  0  0  0
 24 26  1  0  0  0
 17 18  1  0  0  0
 17 22  2  0  0  0
 18 19  2  0  0  0
 19 20  1  0  0  0
 20  1  1  0  0  0
 20 21  2  0  0  0
  1  3  1  0  0  0
  1  2  1  0  0  0
  3  4  1  0  0  0
  3  9  2  0  0  0
  4  5  2  0  0  0
  5  6  1  0  0  0
  6  7  1  0  0  0
  6  8  2  0  0  0
  8 10  1  0  0  0
  8  9  1  0  0  0
 11 13  1  0  0  0
 11 12  1  0  0  0
 11 10  1  0  0  0
 13 14  1  0  0  0
 13 15  1  0  0  0
 15 16  1  0  0  0
 21 22  1  0  0  0
M  END
> <minimizedAffinity>
-7.27770

$$$$
