CHEMBL3656031


 38 41  0  0  0  0  0  0  0  0999 V2000
  -20.4810    1.9203  -14.6640 C   0  0  0  0  0  0  0  0  0  0  0  0
  -20.3283    3.3037  -14.8479 C   0  0  0  0  0  0  0  0  0  0  0  0
  -19.1710    3.8127  -15.4343 C   0  0  0  0  0  0  0  0  0  0  0  0
  -18.1502    2.9458  -15.8015 C   0  0  0  0  0  0  0  0  0  0  0  0
  -17.0887    3.4636  -16.4360 F   0  0  0  0  0  0  0  0  0  0  0  0
  -18.2281    1.5814  -15.5019 C   0  0  0  0  0  0  0  0  0  0  0  0
  -19.4176    1.0611  -14.9704 C   0  0  0  0  0  0  0  0  0  0  0  0
  -21.9112    0.0725  -13.9474 N   0  0  0  0  0  0  0  0  0  0  0  0
  -21.7793    1.4423  -14.1098 C   0  0  0  0  0  0  0  0  0  0  0  0
  -22.6113    2.2968  -13.8308 O   0  0  0  0  0  0  0  0  0  0  0  0
  -21.0855   -0.5008  -14.0467 H   0  0  0  0  0  0  0  0  0  0  0  0
  -26.5260   -1.2160  -15.1264 C   0  0  0  0  0  0  0  0  0  0  0  0
  -25.3814   -1.2535  -14.1558 C   0  0  0  0  0  0  0  0  0  0  0  0
  -25.4944   -1.9659  -12.9583 C   0  0  0  0  0  0  0  0  0  0  0  0
  -24.4421   -1.9662  -12.0469 C   0  0  0  0  0  0  0  0  0  0  0  0
  -23.2613   -1.2833  -12.3372 C   0  0  0  0  0  0  0  0  0  0  0  0
  -22.3491   -1.2165  -11.3586 F   0  0  0  0  0  0  0  0  0  0  0  0
  -23.0934   -0.6090  -13.5539 C   0  0  0  0  0  0  0  0  0  0  0  0
  -24.1822   -0.5727  -14.4420 C   0  0  0  0  0  0  0  0  0  0  0  0
  -17.2305    0.6590  -15.7285 O   0  0  0  0  0  0  0  0  0  0  0  0
  -16.2503    0.4525  -14.7836 C   0  0  0  0  0  0  0  0  0  0  0  0
  -15.2541    1.3671  -14.4551 C   0  0  0  0  0  0  0  0  0  0  0  0
  -14.3005    0.9837  -13.5278 C   0  0  0  0  0  0  0  0  0  0  0  0
  -14.3150   -0.1998  -12.8765 N   0  0  0  0  0  0  0  0  0  0  0  0
  -15.3373   -1.0418  -13.1645 C   0  0  0  0  0  0  0  0  0  0  0  0
  -16.3215   -0.7542  -14.0976 C   0  0  0  0  0  0  0  0  0  0  0  0
  -15.3170   -2.2932  -12.4179 C   0  0  0  0  0  0  0  0  0  0  0  0
  -14.9684   -3.5822  -12.7786 C   0  0  0  0  0  0  0  0  0  0  0  0
  -15.1347   -4.4429  -11.6529 C   0  0  0  0  0  0  0  0  0  0  0  0
  -15.5798   -3.6325  -10.6219 C   0  0  0  0  0  0  0  0  0  0  0  0
  -15.6847   -2.3486  -11.0935 N   0  0  0  0  0  0  0  0  0  0  0  0
  -15.9826   -1.5327  -10.5709 H   0  0  0  0  0  0  0  0  0  0  0  0
  -14.8774   -5.8788  -11.6364 C   0  0  0  0  0  0  0  0  0  0  0  0
  -14.4465   -6.4660  -10.6405 O   0  0  0  0  0  0  0  0  0  0  0  0
  -15.1425   -6.5495  -12.8048 N   0  0  0  0  0  0  0  0  0  0  0  0
  -14.8455   -7.9310  -12.8406 O   0  0  0  0  0  0  0  0  0  0  0  0
  -15.4192   -6.1112  -13.6721 H   0  0  0  0  0  0  0  0  0  0  0  0
  -14.5033   -8.0933  -11.9345 H   0  0  0  0  0  0  0  0  0  0  0  0
 12 13  1  0  0  0
 13 14  1  0  0  0
 13 19  2  0  0  0
 14 15  2  0  0  0
 15 16  1  0  0  0
 16 17  1  0  0  0
 16 18  2  0  0  0
 18  8  1  0  0  0
 18 19  1  0  0  0
  8  9  1  0  0  0
  8 11  1  0  0  0
  9 10  2  0  0  0
  9  1  1  0  0  0
  1  2  1  0  0  0
  1  7  2  0  0  0
  2  3  2  0  0  0
  3  4  1  0  0  0
  4  5  1  0  0  0
  4  6  2  0  0  0
  6 20  1  0  0  0
  6  7  1  0  0  0
 20 21  1  0  0  0
 21 22  1  0  0  0
 21 26  2  0  0  0
 22 23  2  0  0  0
 23 24  1  0  0  0
 24 25  2  0  0  0
 25 27  1  0  0  0
 25 26  1  0  0  0
 27 28  2  0  0  0
 27 31  1  0  0  0
 28 29  1  0  0  0
 29 33  1  0  0  0
 29 30  2  0  0  0
 33 34  2  0  0  0
 33 35  1  0  0  0
 35 36  1  0  0  0
 35 37  1  0  0  0
 36 38  1  0  0  0
 30 31  1  0  0  0
 31 32  1  0  0  0
M  END
> <minimizedAffinity>
-10.84907

$$$$
