CHEMBL3706842


 41 45  0  0  0  0  0  0  0  0999 V2000
  -12.8927   -2.1663  -15.5261 C   0  0  0  0  0  0  0  0  0  0  0  0
  -13.3042   -0.8517  -15.7016 C   0  0  0  0  0  0  0  0  0  0  0  0
  -13.0352    0.1383  -14.7497 C   0  0  0  0  0  0  0  0  0  0  0  0
  -13.5171    1.4450  -14.8635 C   0  0  0  0  0  0  0  0  0  0  0  0
  -13.1845    2.3910  -13.9686 N   0  0  0  0  0  0  0  0  0  0  0  0
  -12.3895    2.0149  -12.9610 C   0  0  0  0  0  0  0  0  0  0  0  0
  -11.9034    0.7855  -12.7494 N   0  0  0  0  0  0  0  0  0  0  0  0
  -12.2261   -0.1517  -13.6485 C   0  0  0  0  0  0  0  0  0  0  0  0
  -11.7111   -1.4427  -13.5364 C   0  0  0  0  0  0  0  0  0  0  0  0
  -12.0032   -2.4470  -14.4774 C   0  0  0  0  0  0  0  0  0  0  0  0
  -12.6493   -3.2791  -17.6386 C   0  0  0  0  0  0  0  0  0  0  0  0
  -13.3031   -3.1569  -16.3737 O   0  0  0  0  0  0  0  0  0  0  0  0
  -14.3578    1.8022  -15.9616 N   0  0  0  0  0  0  0  0  0  0  0  0
  -14.1902    1.1822  -16.7601 H   0  0  0  0  0  0  0  0  0  0  0  0
  -15.7115    2.0450  -15.7632 C   0  0  0  0  0  0  0  0  0  0  0  0
  -16.5903    1.0862  -15.4592 C   0  0  0  0  0  0  0  0  0  0  0  0
  -18.0389    1.2943  -15.4270 C   0  0  0  0  0  0  0  0  0  0  0  0
  -18.7748    0.3224  -15.2744 O   0  0  0  0  0  0  0  0  0  0  0  0
  -18.5434    2.6864  -15.6213 C   0  0  0  0  0  0  0  0  0  0  0  0
  -17.6656    3.6715  -15.8455 C   0  0  0  0  0  0  0  0  0  0  0  0
  -16.2050    3.4494  -15.9011 C   0  0  0  0  0  0  0  0  0  0  0  0
  -15.4248    4.3859  -16.0509 O   0  0  0  0  0  0  0  0  0  0  0  0
  -19.8969    3.0000  -15.6038 O   0  0  0  0  0  0  0  0  0  0  0  0
  -20.4803    3.2227  -14.3149 C   0  0  0  0  0  0  0  0  0  0  0  0
  -21.3349    2.0759  -13.9738 C   0  0  0  0  0  0  0  0  0  0  0  0
  -22.0061    1.1352  -13.6755 C   0  0  0  0  0  0  0  0  0  0  0  0
  -22.8218    0.0176  -13.3106 C   0  0  0  0  0  0  0  0  0  0  0  0
  -22.6416   -0.6022  -12.0731 C   0  0  0  0  0  0  0  0  0  0  0  0
  -23.4273   -1.7017  -11.7199 C   0  0  0  0  0  0  0  0  0  0  0  0
  -24.3948   -2.1817  -12.6033 C   0  0  0  0  0  0  0  0  0  0  0  0
  -24.5832   -1.5593  -13.8369 C   0  0  0  0  0  0  0  0  0  0  0  0
  -23.7974   -0.4590  -14.1909 C   0  0  0  0  0  0  0  0  0  0  0  0
  -11.3310   -3.6310  -14.2649 O   0  0  0  0  0  0  0  0  0  0  0  0
  -11.5568   -4.2319  -12.9847 C   0  0  0  0  0  0  0  0  0  0  0  0
  -12.9173   -4.9182  -12.9166 C   0  0  0  0  0  0  0  0  0  0  0  0
  -13.8206   -4.3419  -11.8236 C   0  0  0  0  0  0  0  0  0  0  0  0
  -15.0243   -3.6978  -12.3841 N   0  0  0  0  0  0  0  0  0  0  0  0
  -16.1744   -3.8465  -11.4746 C   0  0  0  0  0  0  0  0  0  0  0  0
  -16.8086   -5.1651  -11.8701 C   0  0  0  0  0  0  0  0  0  0  0  0
  -16.6815   -5.1556  -13.3789 C   0  0  0  0  0  0  0  0  0  0  0  0
  -15.4553   -4.2977  -13.6609 C   0  0  0  0  0  0  0  0  0  0  0  0
 11 12  1  0  0  0
 12  1  1  0  0  0
  1  2  1  0  0  0
  1 10  2  0  0  0
  2  3  2  0  0  0
  3  4  1  0  0  0
  3  8  1  0  0  0
  4 13  1  0  0  0
  4  5  2  0  0  0
 13 15  1  0  0  0
 13 14  1  0  0  0
 15 16  2  0  0  0
 15 21  1  0  0  0
 16 17  1  0  0  0
 17 18  2  0  0  0
 17 19  1  0  0  0
 19 23  1  0  0  0
 19 20  2  0  0  0
 23 24  1  0  0  0
 24 25  1  0  0  0
 25 26  3  0  0  0
 26 27  1  0  0  0
 27 28  1  0  0  0
 27 32  2  0  0  0
 28 29  2  0  0  0
 29 30  1  0  0  0
 30 31  2  0  0  0
 31 32  1  0  0  0
 20 21  1  0  0  0
 21 22  2  0  0  0
  5  6  1  0  0  0
  6  7  2  0  0  0
  7  8  1  0  0  0
  8  9  2  0  0  0
  9 10  1  0  0  0
 10 33  1  0  0  0
 33 34  1  0  0  0
 34 35  1  0  0  0
 35 36  1  0  0  0
 36 37  1  0  0  0
 37 38  1  0  0  0
 37 41  1  0  0  0
 38 39  1  0  0  0
 39 40  1  0  0  0
 40 41  1  0  0  0
M  END
> <minimizedAffinity>
-9.02755

$$$$
