CHEMBL231800


 36 39  0  0  0  0  0  0  0  0999 V2000
  -28.3932   -3.3183   -8.0494 C   0  0  0  0  0  0  0  0  0  0  0  0
  -28.2524   -3.0215   -9.3726 N   0  0  0  0  0  0  0  0  0  0  0  0
  -27.7272   -1.8403   -9.7065 C   0  0  0  0  0  0  0  0  0  0  0  0
  -27.3500   -0.9344   -8.7903 N   0  0  0  0  0  0  0  0  0  0  0  0
  -27.5126   -1.2273   -7.4959 C   0  0  0  0  0  0  0  0  0  0  0  0
  -28.0422   -2.4122   -7.0600 C   0  0  0  0  0  0  0  0  0  0  0  0
  -30.1370   -7.2493   -7.4573 C   0  0  0  0  0  0  0  0  0  0  0  0
  -30.8514   -6.0879   -7.1439 C   0  0  0  0  0  0  0  0  0  0  0  0
  -30.2762   -4.8213   -7.2838 C   0  0  0  0  0  0  0  0  0  0  0  0
  -28.9805   -4.6521   -7.7923 C   0  0  0  0  0  0  0  0  0  0  0  0
  -28.2456   -5.8189   -8.0551 C   0  0  0  0  0  0  0  0  0  0  0  0
  -28.8084   -7.0889   -7.8856 C   0  0  0  0  0  0  0  0  0  0  0  0
  -30.2916   -9.5359   -8.5047 C   0  0  0  0  0  0  0  0  0  0  0  0
  -30.7408   -8.6497   -7.3269 C   0  0  0  0  0  0  0  0  0  0  0  0
  -32.2833   -8.6630   -7.2873 C   0  0  0  0  0  0  0  0  0  0  0  0
  -30.2591   -9.2625   -6.0791 N   0  0  0  0  0  0  0  0  0  0  0  0
  -30.7188  -10.1590   -5.9355 H   0  0  0  0  0  0  0  0  0  0  0  0
  -30.5353   -8.6691   -5.2972 H   0  0  0  0  0  0  0  0  0  0  0  0
  -27.6134   -1.5340  -11.0632 N   0  0  0  0  0  0  0  0  0  0  0  0
  -28.5082   -1.3610  -11.4913 H   0  0  0  0  0  0  0  0  0  0  0  0
  -26.4474   -1.1981  -11.7620 C   0  0  0  0  0  0  0  0  0  0  0  0
  -26.2543   -1.6280  -13.0774 C   0  0  0  0  0  0  0  0  0  0  0  0
  -25.0261   -1.5099  -13.7109 C   0  0  0  0  0  0  0  0  0  0  0  0
  -23.9499   -0.8972  -13.0676 C   0  0  0  0  0  0  0  0  0  0  0  0
  -24.1471   -0.4056  -11.7688 C   0  0  0  0  0  0  0  0  0  0  0  0
  -25.3838   -0.5564  -11.1224 C   0  0  0  0  0  0  0  0  0  0  0  0
  -22.5858   -0.8085  -13.7224 C   0  0  0  0  0  0  0  0  0  0  0  0
  -21.9910    0.6120  -13.6705 C   0  0  0  0  0  0  0  0  0  0  0  0
  -21.5195    1.1839  -14.9425 N   0  0  0  0  0  0  0  0  0  0  0  0
  -20.1554    0.7584  -15.3150 C   0  0  0  0  0  0  0  0  0  0  0  0
  -19.0593    1.3193  -14.3949 C   0  0  0  0  0  0  0  0  0  0  0  0
  -19.1045    2.7515  -14.3372 O   0  0  0  0  0  0  0  0  0  0  0  0
  -20.3965    3.2141  -13.9243 C   0  0  0  0  0  0  0  0  0  0  0  0
  -21.5087    2.6676  -14.8416 C   0  0  0  0  0  0  0  0  0  0  0  0
  -28.2163   -2.5939   -5.6613 C   0  0  0  0  0  0  0  0  0  0  0  0
  -28.3650   -2.7007   -4.5148 N   0  0  0  0  0  0  0  0  0  0  0  0
 13 14  1  0  0  0
 14 15  1  0  0  0
 14 16  1  0  0  0
 14  7  1  0  0  0
 16 17  1  0  0  0
 16 18  1  0  0  0
  7  8  1  0  0  0
  7 12  2  0  0  0
  8  9  2  0  0  0
  9 10  1  0  0  0
 10  1  1  0  0  0
 10 11  2  0  0  0
  1  2  1  0  0  0
  1  6  2  0  0  0
  2  3  2  0  0  0
  3 19  1  0  0  0
  3  4  1  0  0  0
 19 21  1  0  0  0
 19 20  1  0  0  0
 21 22  1  0  0  0
 21 26  2  0  0  0
 22 23  2  0  0  0
 23 24  1  0  0  0
 24 27  1  0  0  0
 24 25  2  0  0  0
 27 28  1  0  0  0
 28 29  1  0  0  0
 29 30  1  0  0  0
 29 34  1  0  0  0
 30 31  1  0  0  0
 31 32  1  0  0  0
 32 33  1  0  0  0
 33 34  1  0  0  0
 25 26  1  0  0  0
  4  5  2  0  0  0
  5  6  1  0  0  0
  6 35  1  0  0  0
 35 36  3  0  0  0
 11 12  1  0  0  0
M  END
> <minimizedAffinity>
-9.31035

$$$$
