CHEMBL257292


 32 35  0  0  0  0  0  0  0  0999 V2000
  -14.9902   -2.3542  -12.6654 C   0  0  0  0  0  0  0  0  0  0  0  0
  -13.6031   -2.3745  -12.8244 C   0  0  0  0  0  0  0  0  0  0  0  0
  -12.7844   -3.0035  -11.8777 C   0  0  0  0  0  0  0  0  0  0  0  0
  -13.3210   -3.6082  -10.7276 C   0  0  0  0  0  0  0  0  0  0  0  0
  -14.7017   -3.4418  -10.5203 C   0  0  0  0  0  0  0  0  0  0  0  0
  -15.5335   -2.8382  -11.4803 C   0  0  0  0  0  0  0  0  0  0  0  0
  -12.4592   -4.3790   -9.8033 C   0  0  0  0  0  0  0  0  0  0  0  0
  -12.1106   -3.8728   -8.5305 C   0  0  0  0  0  0  0  0  0  0  0  0
  -11.2815   -4.5936   -7.6806 C   0  0  0  0  0  0  0  0  0  0  0  0
  -10.7554   -5.8024   -7.9485 N   0  0  0  0  0  0  0  0  0  0  0  0
  -11.0973   -6.2572   -9.1672 C   0  0  0  0  0  0  0  0  0  0  0  0
  -10.6971   -7.4495   -9.6878 N   0  0  0  0  0  0  0  0  0  0  0  0
  -11.1376   -7.6751  -10.9344 N   0  0  0  0  0  0  0  0  0  0  0  0
  -11.8349   -6.5759  -11.2198 C   0  0  0  0  0  0  0  0  0  0  0  0
  -12.3842   -6.4201  -12.4356 N   0  0  0  0  0  0  0  0  0  0  0  0
  -11.8921   -5.6434  -10.1331 C   0  0  0  0  0  0  0  0  0  0  0  0
  -10.1180   -8.1428   -9.2316 H   0  0  0  0  0  0  0  0  0  0  0  0
  -12.0972   -7.1076  -13.1244 H   0  0  0  0  0  0  0  0  0  0  0  0
  -12.4495   -5.4851  -12.8244 H   0  0  0  0  0  0  0  0  0  0  0  0
  -17.1151   -0.3116  -14.8067 N   0  0  0  0  0  0  0  0  0  0  0  0
  -16.2988   -0.6070  -13.7222 C   0  0  0  0  0  0  0  0  0  0  0  0
  -15.9507    0.2064  -12.8674 O   0  0  0  0  0  0  0  0  0  0  0  0
  -15.8516   -1.9245  -13.7130 N   0  0  0  0  0  0  0  0  0  0  0  0
  -17.2886   -1.0460  -15.4755 H   0  0  0  0  0  0  0  0  0  0  0  0
  -15.6707   -2.3176  -14.6245 H   0  0  0  0  0  0  0  0  0  0  0  0
  -15.5397    1.6992  -16.3219 C   0  0  0  0  0  0  0  0  0  0  0  0
  -16.9207    1.9449  -15.7805 C   0  0  0  0  0  0  0  0  0  0  0  0
  -17.4836    3.2225  -15.9976 C   0  0  0  0  0  0  0  0  0  0  0  0
  -18.7568    3.5444  -15.5323 C   0  0  0  0  0  0  0  0  0  0  0  0
  -19.5014    2.5866  -14.8682 C   0  0  0  0  0  0  0  0  0  0  0  0
  -18.9644    1.3168  -14.6597 C   0  0  0  0  0  0  0  0  0  0  0  0
  -17.6680    0.9738  -15.0821 C   0  0  0  0  0  0  0  0  0  0  0  0
 26 27  1  0  0  0
 27 28  1  0  0  0
 27 32  2  0  0  0
 28 29  2  0  0  0
 29 30  1  0  0  0
 30 31  2  0  0  0
 31 32  1  0  0  0
 32 20  1  0  0  0
 20 21  1  0  0  0
 20 24  1  0  0  0
 21 22  2  0  0  0
 21 23  1  0  0  0
 23  1  1  0  0  0
 23 25  1  0  0  0
  1  2  1  0  0  0
  1  6  2  0  0  0
  2  3  2  0  0  0
  3  4  1  0  0  0
  4  7  1  0  0  0
  4  5  2  0  0  0
  7  8  1  0  0  0
  7 16  2  0  0  0
  8  9  2  0  0  0
  9 10  1  0  0  0
 10 11  2  0  0  0
 11 12  1  0  0  0
 11 16  1  0  0  0
 12 13  1  0  0  0
 12 17  1  0  0  0
 13 14  2  0  0  0
 14 15  1  0  0  0
 14 16  1  0  0  0
 15 18  1  0  0  0
 15 19  1  0  0  0
  5  6  1  0  0  0
M  END
> <minimizedAffinity>
-8.67909

$$$$
