CHEMBL462562


 36 40  0  0  0  0  0  0  0  0999 V2000
  -26.8005   -2.1749  -10.2558 C   0  0  0  0  0  0  0  0  0  0  0  0
  -25.4837   -1.7184  -10.1288 C   0  0  0  0  0  0  0  0  0  0  0  0
  -24.7509   -1.2725  -11.2404 C   0  0  0  0  0  0  0  0  0  0  0  0
  -25.3600   -1.2959  -12.5114 C   0  0  0  0  0  0  0  0  0  0  0  0
  -24.9809   -0.9577  -13.8519 C   0  0  0  0  0  0  0  0  0  0  0  0
  -25.9831   -1.1954  -14.6987 N   0  0  0  0  0  0  0  0  0  0  0  0
  -26.9636   -1.7001  -13.9450 N   0  0  0  0  0  0  0  0  0  0  0  0
  -28.1693   -2.1720  -14.5806 C   0  0  0  0  0  0  0  0  0  0  0  0
  -26.6643   -1.7785  -12.6108 C   0  0  0  0  0  0  0  0  0  0  0  0
  -27.4081   -2.2398  -11.5118 C   0  0  0  0  0  0  0  0  0  0  0  0
  -23.7438   -0.4626  -14.2345 N   0  0  0  0  0  0  0  0  0  0  0  0
  -23.2125    0.7337  -13.7917 C   0  0  0  0  0  0  0  0  0  0  0  0
  -23.7291    1.5174  -12.9997 O   0  0  0  0  0  0  0  0  0  0  0  0
  -23.2479   -1.0012  -14.9289 H   0  0  0  0  0  0  0  0  0  0  0  0
  -21.8560    1.1067  -14.2945 C   0  0  0  0  0  0  0  0  0  0  0  0
  -21.0506    0.0356  -14.7413 C   0  0  0  0  0  0  0  0  0  0  0  0
  -19.7528    0.2416  -15.2144 C   0  0  0  0  0  0  0  0  0  0  0  0
  -19.2328    1.5351  -15.2306 C   0  0  0  0  0  0  0  0  0  0  0  0
  -20.0091    2.6075  -14.7822 C   0  0  0  0  0  0  0  0  0  0  0  0
  -21.3168    2.3996  -14.3130 C   0  0  0  0  0  0  0  0  0  0  0  0
  -22.1601    3.7975  -13.7435 Cl  0  0  0  0  0  0  0  0  0  0  0  0
  -27.3969   -2.5599   -9.0742 O   0  0  0  0  0  0  0  0  0  0  0  0
  -28.6778   -2.4992   -4.0368 C   0  0  0  0  0  0  0  0  0  0  0  0
  -28.7317   -1.2003   -4.5783 C   0  0  0  0  0  0  0  0  0  0  0  0
  -28.4118   -0.9224   -5.9005 C   0  0  0  0  0  0  0  0  0  0  0  0
  -28.5863    0.3351   -6.3418 N   0  0  0  0  0  0  0  0  0  0  0  0
  -28.3563    0.5933   -7.6443 C   0  0  0  0  0  0  0  0  0  0  0  0
  -27.9175   -0.3537   -8.5441 C   0  0  0  0  0  0  0  0  0  0  0  0
  -27.6981   -1.6503   -8.0810 C   0  0  0  0  0  0  0  0  0  0  0  0
  -27.9681   -1.9689   -6.7288 C   0  0  0  0  0  0  0  0  0  0  0  0
  -27.8586   -3.2574   -6.1624 C   0  0  0  0  0  0  0  0  0  0  0  0
  -28.1954   -3.5346   -4.8328 C   0  0  0  0  0  0  0  0  0  0  0  0
  -30.4872   -2.8429   -2.5569 C   0  0  0  0  0  0  0  0  0  0  0  0
  -29.0727   -2.7563   -2.7498 O   0  0  0  0  0  0  0  0  0  0  0  0
  -27.9777   -4.8472   -4.5439 O   0  0  0  0  0  0  0  0  0  0  0  0
  -28.5210   -5.8668   -5.3600 C   0  0  0  0  0  0  0  0  0  0  0  0
 33 34  1  0  0  0
 34 23  1  0  0  0
 23 24  1  0  0  0
 23 32  2  0  0  0
 24 25  2  0  0  0
 25 26  1  0  0  0
 25 30  1  0  0  0
 26 27  2  0  0  0
 27 28  1  0  0  0
 28 29  2  0  0  0
 29 22  1  0  0  0
 29 30  1  0  0  0
 22  1  1  0  0  0
  1  2  1  0  0  0
  1 10  2  0  0  0
  2  3  2  0  0  0
  3  4  1  0  0  0
  4  5  1  0  0  0
  4  9  2  0  0  0
  5 11  1  0  0  0
  5  6  2  0  0  0
 11 12  1  0  0  0
 11 14  1  0  0  0
 12 13  2  0  0  0
 12 15  1  0  0  0
 15 16  1  0  0  0
 15 20  2  0  0  0
 16 17  2  0  0  0
 17 18  1  0  0  0
 18 19  2  0  0  0
 19 20  1  0  0  0
 20 21  1  0  0  0
  6  7  1  0  0  0
  7  8  1  0  0  0
  7  9  1  0  0  0
  9 10  1  0  0  0
 30 31  2  0  0  0
 31 32  1  0  0  0
 32 35  1  0  0  0
 35 36  1  0  0  0
M  END
> <minimizedAffinity>
-8.05139

$$$$
