CHEMBL3907975


 38 41  0  0  0  0  0  0  0  0999 V2000
  -25.6655   -1.2614  -12.4925 C   0  0  0  0  0  0  0  0  0  0  0  0
  -25.6438   -1.1958  -13.8895 C   0  0  0  0  0  0  0  0  0  0  0  0
  -24.4696   -0.8701  -14.5747 C   0  0  0  0  0  0  0  0  0  0  0  0
  -23.3016   -0.5907  -13.8675 C   0  0  0  0  0  0  0  0  0  0  0  0
  -23.3685   -0.5284  -12.4721 C   0  0  0  0  0  0  0  0  0  0  0  0
  -22.3021   -0.1821  -11.7377 F   0  0  0  0  0  0  0  0  0  0  0  0
  -24.5295   -0.8764  -11.7851 C   0  0  0  0  0  0  0  0  0  0  0  0
  -25.7818   -1.7641   -9.6599 O   0  0  0  0  0  0  0  0  0  0  0  0
  -26.7567   -1.9449  -10.3793 C   0  0  0  0  0  0  0  0  0  0  0  0
  -26.7644   -1.7452  -11.7494 N   0  0  0  0  0  0  0  0  0  0  0  0
  -27.9975   -2.3525   -9.9174 N   0  0  0  0  0  0  0  0  0  0  0  0
  -27.6734   -1.6337  -12.1733 H   0  0  0  0  0  0  0  0  0  0  0  0
  -28.6283   -2.7480  -10.5985 H   0  0  0  0  0  0  0  0  0  0  0  0
  -28.3288   -2.5161   -8.5533 C   0  0  0  0  0  0  0  0  0  0  0  0
  -29.0596   -3.6059   -8.0814 C   0  0  0  0  0  0  0  0  0  0  0  0
  -29.3994   -3.7075   -6.7335 C   0  0  0  0  0  0  0  0  0  0  0  0
  -29.0161   -2.7287   -5.8100 C   0  0  0  0  0  0  0  0  0  0  0  0
  -28.2568   -1.6473   -6.2789 C   0  0  0  0  0  0  0  0  0  0  0  0
  -27.7301   -0.3779   -5.2354 Cl  0  0  0  0  0  0  0  0  0  0  0  0
  -27.9003   -1.5519   -7.6370 C   0  0  0  0  0  0  0  0  0  0  0  0
  -29.4194   -2.9049   -4.3703 C   0  0  0  0  0  0  0  0  0  0  0  0
  -30.0961   -1.8189   -3.8850 F   0  0  0  0  0  0  0  0  0  0  0  0
  -30.2583   -3.9584   -4.1763 F   0  0  0  0  0  0  0  0  0  0  0  0
  -28.3725   -3.0768   -3.5195 F   0  0  0  0  0  0  0  0  0  0  0  0
  -22.1825   -0.3483  -14.6335 O   0  0  0  0  0  0  0  0  0  0  0  0
  -21.5717    0.8866  -14.6043 C   0  0  0  0  0  0  0  0  0  0  0  0
  -22.1921    2.0515  -14.1640 C   0  0  0  0  0  0  0  0  0  0  0  0
  -21.4794    3.2266  -14.2587 C   0  0  0  0  0  0  0  0  0  0  0  0
  -20.2107    3.2863  -14.6797 N   0  0  0  0  0  0  0  0  0  0  0  0
  -19.5810    2.1478  -15.0375 C   0  0  0  0  0  0  0  0  0  0  0  0
  -20.2364    0.9246  -15.0105 C   0  0  0  0  0  0  0  0  0  0  0  0
  -18.2319    2.2225  -15.4519 N   0  0  0  0  0  0  0  0  0  0  0  0
  -17.1817    1.7779  -14.6771 C   0  0  0  0  0  0  0  0  0  0  0  0
  -17.2408    1.2613  -13.5694 O   0  0  0  0  0  0  0  0  0  0  0  0
  -18.0420    2.6315  -16.3555 H   0  0  0  0  0  0  0  0  0  0  0  0
  -15.8133    1.9490  -15.2740 C   0  0  0  0  0  0  0  0  0  0  0  0
  -15.6672    2.7812  -16.5343 C   0  0  0  0  0  0  0  0  0  0  0  0
  -15.4994    1.2922  -16.6068 C   0  0  0  0  0  0  0  0  0  0  0  0
  8  9  2  0  0  0
  9 10  1  0  0  0
  9 11  1  0  0  0
 10  1  1  0  0  0
 10 12  1  0  0  0
  1  2  1  0  0  0
  1  7  2  0  0  0
  2  3  2  0  0  0
  3  4  1  0  0  0
  4 25  1  0  0  0
  4  5  2  0  0  0
 25 26  1  0  0  0
 26 27  1  0  0  0
 26 31  2  0  0  0
 27 28  2  0  0  0
 28 29  1  0  0  0
 29 30  2  0  0  0
 30 32  1  0  0  0
 30 31  1  0  0  0
 32 33  1  0  0  0
 32 35  1  0  0  0
 33 34  2  0  0  0
 33 36  1  0  0  0
 36 37  1  0  0  0
 36 38  1  0  0  0
 37 38  1  0  0  0
  5  6  1  0  0  0
  5  7  1  0  0  0
 11 14  1  0  0  0
 11 13  1  0  0  0
 14 15  1  0  0  0
 14 20  2  0  0  0
 15 16  2  0  0  0
 16 17  1  0  0  0
 17 21  1  0  0  0
 17 18  2  0  0  0
 21 22  1  0  0  0
 21 23  1  0  0  0
 21 24  1  0  0  0
 18 19  1  0  0  0
 18 20  1  0  0  0
M  END
> <minimizedAffinity>
-11.61622

$$$$
