CHEMBL3671515


 34 36  0  0  0  0  0  0  0  0999 V2000
  -33.7844    8.9722  -12.9446 C   0  0  0  0  0  0  0  0  0  0  0  0
  -32.7896    9.8621  -13.3413 C   0  0  0  0  0  0  0  0  0  0  0  0
  -32.2108   10.7689  -12.4420 C   0  0  0  0  0  0  0  0  0  0  0  0
  -31.2694   11.7319  -12.8273 C   0  0  0  0  0  0  0  0  0  0  0  0
  -30.7744   12.6178  -11.9466 N   0  0  0  0  0  0  0  0  0  0  0  0
  -31.2080   12.5152  -10.6873 C   0  0  0  0  0  0  0  0  0  0  0  0
  -32.0979   11.6268  -10.2203 N   0  0  0  0  0  0  0  0  0  0  0  0
  -32.6028   10.7526  -11.1058 C   0  0  0  0  0  0  0  0  0  0  0  0
  -33.5496    9.8088  -10.7009 C   0  0  0  0  0  0  0  0  0  0  0  0
  -34.1349    8.8875  -11.5903 C   0  0  0  0  0  0  0  0  0  0  0  0
  -35.0782    8.9873  -14.9938 C   0  0  0  0  0  0  0  0  0  0  0  0
  -35.1040   10.2082  -15.1088 O   0  0  0  0  0  0  0  0  0  0  0  0
  -34.4305    8.2878  -13.9902 N   0  0  0  0  0  0  0  0  0  0  0  0
  -34.5369    7.2902  -13.9350 H   0  0  0  0  0  0  0  0  0  0  0  0
  -35.8166    8.3930  -17.2423 C   0  0  0  0  0  0  0  0  0  0  0  0
  -35.8065    8.1017  -15.9351 C   0  0  0  0  0  0  0  0  0  0  0  0
  -30.8438   11.7855  -14.1871 N   0  0  0  0  0  0  0  0  0  0  0  0
  -31.2758   12.5898  -14.6334 H   0  0  0  0  0  0  0  0  0  0  0  0
  -29.5204   11.5688  -14.6340 C   0  0  0  0  0  0  0  0  0  0  0  0
  -28.4560   12.2023  -13.9748 C   0  0  0  0  0  0  0  0  0  0  0  0
  -27.1344   11.9510  -14.3541 C   0  0  0  0  0  0  0  0  0  0  0  0
  -26.8687   11.0819  -15.4120 C   0  0  0  0  0  0  0  0  0  0  0  0
  -25.0825   10.6761  -15.8724 Br  0  0  0  0  0  0  0  0  0  0  0  0
  -27.9107   10.5010  -16.1260 C   0  0  0  0  0  0  0  0  0  0  0  0
  -29.2197   10.7620  -15.7489 C   0  0  0  0  0  0  0  0  0  0  0  0
  -30.2021   10.2435  -16.4969 F   0  0  0  0  0  0  0  0  0  0  0  0
  -35.1191    8.0988  -11.0342 O   0  0  0  0  0  0  0  0  0  0  0  0
  -34.9339    6.6918  -11.1950 C   0  0  0  0  0  0  0  0  0  0  0  0
  -33.9281    6.1013  -10.1968 C   0  0  0  0  0  0  0  0  0  0  0  0
  -34.1609    4.7064   -9.8356 N   0  0  0  0  0  0  0  0  0  0  0  0
  -35.3751    4.0851  -10.3409 C   0  0  0  0  0  0  0  0  0  0  0  0
  -33.3097    3.9040   -9.0921 C   0  0  0  0  0  0  0  0  0  0  0  0
  -32.0483    4.4973   -8.5118 C   0  0  0  0  0  0  0  0  0  0  0  0
  -33.5514    2.7109   -8.8923 O   0  0  0  0  0  0  0  0  0  0  0  0
 15 16  2  0  0  0
 16 11  1  0  0  0
 11 12  2  0  0  0
 11 13  1  0  0  0
 13  1  1  0  0  0
 13 14  1  0  0  0
  1  2  1  0  0  0
  1 10  2  0  0  0
  2  3  2  0  0  0
  3  4  1  0  0  0
  3  8  1  0  0  0
  4 17  1  0  0  0
  4  5  2  0  0  0
 17 19  1  0  0  0
 17 18  1  0  0  0
 19 20  1  0  0  0
 19 25  2  0  0  0
 20 21  2  0  0  0
 21 22  1  0  0  0
 22 23  1  0  0  0
 22 24  2  0  0  0
 24 25  1  0  0  0
 25 26  1  0  0  0
  5  6  1  0  0  0
  6  7  2  0  0  0
  7  8  1  0  0  0
  8  9  2  0  0  0
  9 10  1  0  0  0
 10 27  1  0  0  0
 27 28  1  0  0  0
 28 29  1  0  0  0
 29 30  1  0  0  0
 30 31  1  0  0  0
 30 32  1  0  0  0
 32 33  1  0  0  0
 32 34  2  0  0  0
M  END
> <minimizedAffinity>
-5.18514

$$$$
