CHEMBL2430257


 34 37  0  0  0  0  0  0  0  0999 V2000
  -14.9888   -3.0500  -13.4490 C   0  0  0  0  0  0  0  0  0  0  0  0
  -15.4733   -4.2261  -12.8876 C   0  0  0  0  0  0  0  0  0  0  0  0
  -16.4629   -4.4718  -11.8028 C   0  0  0  0  0  0  0  0  0  0  0  0
  -14.9139   -5.2892  -13.5831 N   0  0  0  0  0  0  0  0  0  0  0  0
  -14.1032   -4.8332  -14.5893 C   0  0  0  0  0  0  0  0  0  0  0  0
  -14.1285   -3.4532  -14.5178 C   0  0  0  0  0  0  0  0  0  0  0  0
  -13.3866   -2.5436  -15.4260 C   0  0  0  0  0  0  0  0  0  0  0  0
  -12.5163   -3.2364  -16.4601 C   0  0  0  0  0  0  0  0  0  0  0  0
  -12.5409   -4.7661  -16.5439 C   0  0  0  0  0  0  0  0  0  0  0  0
  -13.3651   -5.5957  -15.5564 C   0  0  0  0  0  0  0  0  0  0  0  0
  -13.3351   -6.9508  -15.6903 C   0  0  0  0  0  0  0  0  0  0  0  0
  -14.0612   -8.0076  -14.8641 C   0  0  0  0  0  0  0  0  0  0  0  0
  -14.8091   -7.8560  -13.9155 O   0  0  0  0  0  0  0  0  0  0  0  0
  -13.7020   -9.2295  -15.4040 N   0  0  0  0  0  0  0  0  0  0  0  0
  -12.8315   -9.0842  -16.4739 C   0  0  0  0  0  0  0  0  0  0  0  0
  -12.2740  -10.1015  -17.2344 C   0  0  0  0  0  0  0  0  0  0  0  0
  -12.5549  -11.3865  -16.9781 F   0  0  0  0  0  0  0  0  0  0  0  0
  -11.4129   -9.7798  -18.2758 C   0  0  0  0  0  0  0  0  0  0  0  0
  -11.1241   -8.4393  -18.5414 C   0  0  0  0  0  0  0  0  0  0  0  0
  -11.6967   -7.4234  -17.7644 C   0  0  0  0  0  0  0  0  0  0  0  0
  -12.5598   -7.7364  -16.7145 C   0  0  0  0  0  0  0  0  0  0  0  0
  -15.1150   -6.2678  -13.3942 H   0  0  0  0  0  0  0  0  0  0  0  0
  -14.0365  -10.1167  -15.0538 H   0  0  0  0  0  0  0  0  0  0  0  0
  -16.0507   -0.9653  -14.0546 N   0  0  0  0  0  0  0  0  0  0  0  0
  -15.3064   -1.6555  -13.1264 C   0  0  0  0  0  0  0  0  0  0  0  0
  -14.9766   -1.1438  -12.0589 O   0  0  0  0  0  0  0  0  0  0  0  0
  -16.5759   -1.4964  -14.7384 H   0  0  0  0  0  0  0  0  0  0  0  0
  -16.4896    0.3778  -13.7433 C   0  0  0  0  0  0  0  0  0  0  0  0
  -17.2648    1.0396  -14.8917 C   0  0  0  0  0  0  0  0  0  0  0  0
  -18.5824    1.6045  -14.5142 N   0  0  0  0  0  0  0  0  0  0  0  0
  -17.5901    3.5536  -15.7841 C   0  0  0  0  0  0  0  0  0  0  0  0
  -18.6618    3.0436  -14.8258 C   0  0  0  0  0  0  0  0  0  0  0  0
  -19.6784    0.8067  -15.0957 C   0  0  0  0  0  0  0  0  0  0  0  0
  -21.0856    1.1032  -14.5796 C   0  0  0  0  0  0  0  0  0  0  0  0
 31 32  1  0  0  0
 32 30  1  0  0  0
 30 33  1  0  0  0
 30 29  1  0  0  0
 33 34  1  0  0  0
 29 28  1  0  0  0
 28 24  1  0  0  0
 24 25  1  0  0  0
 24 27  1  0  0  0
 25 26  2  0  0  0
 25  1  1  0  0  0
  1  2  2  0  0  0
  1  6  1  0  0  0
  2  3  1  0  0  0
  2  4  1  0  0  0
  4  5  1  0  0  0
  4 22  1  0  0  0
  5  6  2  0  0  0
  5 10  1  0  0  0
  6  7  1  0  0  0
  7  8  1  0  0  0
  8  9  1  0  0  0
  9 10  1  0  0  0
 10 11  2  0  0  0
 11 12  1  0  0  0
 11 21  1  0  0  0
 12 13  2  0  0  0
 12 14  1  0  0  0
 14 15  1  0  0  0
 14 23  1  0  0  0
 15 16  1  0  0  0
 15 21  2  0  0  0
 16 17  1  0  0  0
 16 18  2  0  0  0
 18 19  1  0  0  0
 19 20  2  0  0  0
 20 21  1  0  0  0
M  END
> <minimizedAffinity>
-7.16292

$$$$
