CHEMBL3690495


 33 36  0  0  0  0  0  0  0  0999 V2000
  -16.1889    1.4230  -15.3231 C   0  0  0  0  0  0  0  0  0  0  0  0
  -16.1837    2.7917  -15.6676 C   0  0  0  0  0  0  0  0  0  0  0  0
  -17.3613    3.5037  -15.8526 C   0  0  0  0  0  0  0  0  0  0  0  0
  -18.5794    2.8559  -15.7184 C   0  0  0  0  0  0  0  0  0  0  0  0
  -18.6394    1.4906  -15.4165 C   0  0  0  0  0  0  0  0  0  0  0  0
  -17.4377    0.7785  -15.1983 C   0  0  0  0  0  0  0  0  0  0  0  0
  -14.4154   -2.5264  -12.5982 C   0  0  0  0  0  0  0  0  0  0  0  0
  -13.4900   -2.4129  -13.7412 C   0  0  0  0  0  0  0  0  0  0  0  0
  -13.7193   -1.4746  -14.6873 C   0  0  0  0  0  0  0  0  0  0  0  0
  -14.7040   -0.4946  -14.4217 N   0  0  0  0  0  0  0  0  0  0  0  0
  -14.8728    0.8032  -14.9350 C   0  0  0  0  0  0  0  0  0  0  0  0
  -14.1198    1.3840  -13.8979 C   0  0  0  0  0  0  0  0  0  0  0  0
  -14.5502    0.8345  -12.7202 N   0  0  0  0  0  0  0  0  0  0  0  0
  -15.0921   -0.3332  -13.0896 C   0  0  0  0  0  0  0  0  0  0  0  0
  -15.2802   -1.5193  -12.3424 C   0  0  0  0  0  0  0  0  0  0  0  0
  -13.6708   -7.3316  -11.5009 C   0  0  0  0  0  0  0  0  0  0  0  0
  -14.0232   -5.9321  -11.1161 C   0  0  0  0  0  0  0  0  0  0  0  0
  -14.3309   -5.5904   -9.8105 C   0  0  0  0  0  0  0  0  0  0  0  0
  -14.6685   -4.3391   -9.4291 N   0  0  0  0  0  0  0  0  0  0  0  0
  -14.7070   -3.3470  -10.3643 N   0  0  0  0  0  0  0  0  0  0  0  0
  -14.4047   -3.6313  -11.6435 C   0  0  0  0  0  0  0  0  0  0  0  0
  -14.0583   -4.9117  -12.0622 C   0  0  0  0  0  0  0  0  0  0  0  0
  -19.8903    0.8367  -15.2733 N   0  0  0  0  0  0  0  0  0  0  0  0
  -20.9253    1.2999  -14.4909 C   0  0  0  0  0  0  0  0  0  0  0  0
  -20.9633    2.3833  -13.8962 O   0  0  0  0  0  0  0  0  0  0  0  0
  -21.9680    0.4206  -14.3646 N   0  0  0  0  0  0  0  0  0  0  0  0
  -20.0731    0.0460  -15.8682 H   0  0  0  0  0  0  0  0  0  0  0  0
  -22.1419   -0.2013  -15.1388 H   0  0  0  0  0  0  0  0  0  0  0  0
  -23.1274    0.8517  -13.5656 C   0  0  0  0  0  0  0  0  0  0  0  0
  -23.5918   -0.1257  -12.4742 C   0  0  0  0  0  0  0  0  0  0  0  0
  -24.1865   -1.2250  -12.9931 F   0  0  0  0  0  0  0  0  0  0  0  0
  -22.5209   -0.5622  -11.7632 F   0  0  0  0  0  0  0  0  0  0  0  0
  -24.4457    0.4443  -11.5995 F   0  0  0  0  0  0  0  0  0  0  0  0
 16 17  1  0  0  0
 17 18  1  0  0  0
 17 22  2  0  0  0
 18 19  2  0  0  0
 19 20  1  0  0  0
 20 21  2  0  0  0
 21  7  1  0  0  0
 21 22  1  0  0  0
  7  8  1  0  0  0
  7 15  2  0  0  0
  8  9  2  0  0  0
  9 10  1  0  0  0
 10 11  1  0  0  0
 10 14  1  0  0  0
 11  1  1  0  0  0
 11 12  2  0  0  0
  1  2  1  0  0  0
  1  6  2  0  0  0
  2  3  2  0  0  0
  3  4  1  0  0  0
  4  5  2  0  0  0
  5 23  1  0  0  0
  5  6  1  0  0  0
 23 24  1  0  0  0
 23 27  1  0  0  0
 24 25  2  0  0  0
 24 26  1  0  0  0
 26 29  1  0  0  0
 26 28  1  0  0  0
 29 30  1  0  0  0
 30 31  1  0  0  0
 30 32  1  0  0  0
 30 33  1  0  0  0
 12 13  1  0  0  0
 13 14  2  0  0  0
 14 15  1  0  0  0
M  END
> <minimizedAffinity>
-10.16921

$$$$
