CHEMBL3215582


 38 43  0  0  0  0  0  0  0  0999 V2000
  -29.1561   -8.9554   -9.4959 C   0  0  0  0  0  0  0  0  0  0  0  0
  -29.3137   -8.0272   -8.3258 C   0  0  0  0  0  0  0  0  0  0  0  0
  -28.2708   -7.1004   -8.1770 C   0  0  0  0  0  0  0  0  0  0  0  0
  -28.2653   -6.1604   -7.1713 C   0  0  0  0  0  0  0  0  0  0  0  0
  -29.3026   -6.1158   -6.2430 C   0  0  0  0  0  0  0  0  0  0  0  0
  -29.2689   -5.1924   -5.1725 C   0  0  0  0  0  0  0  0  0  0  0  0
  -30.2592   -5.2167   -4.2420 N   0  0  0  0  0  0  0  0  0  0  0  0
  -31.3009   -6.0727   -4.3106 C   0  0  0  0  0  0  0  0  0  0  0  0
  -31.3911   -6.9821   -5.3569 C   0  0  0  0  0  0  0  0  0  0  0  0
  -30.3865   -7.0365   -6.3504 C   0  0  0  0  0  0  0  0  0  0  0  0
  -30.4297   -8.0016   -7.4123 C   0  0  0  0  0  0  0  0  0  0  0  0
  -28.2471   -4.2044   -5.0481 N   0  0  0  0  0  0  0  0  0  0  0  0
  -27.2969   -4.4962   -4.7732 H   0  0  0  0  0  0  0  0  0  0  0  0
  -28.4613   -2.8589   -5.4547 C   0  0  0  0  0  0  0  0  0  0  0  0
  -29.1485   -1.9638   -4.6133 C   0  0  0  0  0  0  0  0  0  0  0  0
  -29.3514   -0.6414   -5.0015 C   0  0  0  0  0  0  0  0  0  0  0  0
  -28.8855   -0.1989   -6.2415 C   0  0  0  0  0  0  0  0  0  0  0  0
  -29.1698    1.4585   -6.7364 Cl  0  0  0  0  0  0  0  0  0  0  0  0
  -28.1926   -1.0783   -7.0825 C   0  0  0  0  0  0  0  0  0  0  0  0
  -27.9659   -2.4009   -6.6842 C   0  0  0  0  0  0  0  0  0  0  0  0
  -31.6332   -8.8102   -7.5535 N   0  0  0  0  0  0  0  0  0  0  0  0
  -32.2610   -8.4820   -8.2831 H   0  0  0  0  0  0  0  0  0  0  0  0
  -31.9544  -10.0900   -6.9926 C   0  0  0  0  0  0  0  0  0  0  0  0
  -33.2385  -10.5240   -7.0394 N   0  0  0  0  0  0  0  0  0  0  0  0
  -33.6856  -11.6423   -6.4177 C   0  0  0  0  0  0  0  0  0  0  0  0
  -32.8033  -12.4262   -5.7009 C   0  0  0  0  0  0  0  0  0  0  0  0
  -31.4650  -12.0676   -5.6641 C   0  0  0  0  0  0  0  0  0  0  0  0
  -30.9863  -10.9105   -6.3217 C   0  0  0  0  0  0  0  0  0  0  0  0
  -29.5087  -10.6763   -6.1753 C   0  0  0  0  0  0  0  0  0  0  0  0
  -28.7069  -11.1181   -7.1959 N   0  0  0  0  0  0  0  0  0  0  0  0
  -27.3544  -10.9312   -7.2204 C   0  0  0  0  0  0  0  0  0  0  0  0
  -26.7319  -10.2544   -6.2140 N   0  0  0  0  0  0  0  0  0  0  0  0
  -27.4992   -9.7829   -5.2055 C   0  0  0  0  0  0  0  0  0  0  0  0
  -27.0897   -9.0597   -4.1637 N   0  0  0  0  0  0  0  0  0  0  0  0
  -28.2261   -8.8056   -3.4675 C   0  0  0  0  0  0  0  0  0  0  0  0
  -29.3300   -9.3382   -4.0559 N   0  0  0  0  0  0  0  0  0  0  0  0
  -28.8486   -9.9704   -5.1463 C   0  0  0  0  0  0  0  0  0  0  0  0
  -26.1158   -8.7509   -3.9440 H   0  0  0  0  0  0  0  0  0  0  0  0
  1  2  1  0  0  0
  2  3  1  0  0  0
  2 11  2  0  0  0
  3  4  2  0  0  0
  4  5  1  0  0  0
  5  6  1  0  0  0
  5 10  2  0  0  0
  6 12  1  0  0  0
  6  7  2  0  0  0
 12 14  1  0  0  0
 12 13  1  0  0  0
 14 15  1  0  0  0
 14 20  2  0  0  0
 15 16  2  0  0  0
 16 17  1  0  0  0
 17 18  1  0  0  0
 17 19  2  0  0  0
 19 20  1  0  0  0
  7  8  1  0  0  0
  8  9  2  0  0  0
  9 10  1  0  0  0
 10 11  1  0  0  0
 11 21  1  0  0  0
 21 23  1  0  0  0
 21 22  1  0  0  0
 23 24  1  0  0  0
 23 28  2  0  0  0
 24 25  2  0  0  0
 25 26  1  0  0  0
 26 27  2  0  0  0
 27 28  1  0  0  0
 28 29  1  0  0  0
 29 30  1  0  0  0
 29 37  2  0  0  0
 30 31  2  0  0  0
 31 32  1  0  0  0
 32 33  2  0  0  0
 33 34  1  0  0  0
 33 37  1  0  0  0
 34 35  1  0  0  0
 34 38  1  0  0  0
 35 36  2  0  0  0
 36 37  1  0  0  0
M  END
> <minimizedAffinity>
-8.86885

$$$$
