CHEMBL248222


 35 39  0  0  0  0  0  0  0  0999 V2000
  -29.5531   -8.1407   -6.0185 C   0  0  0  0  0  0  0  0  0  0  0  0
  -29.8031   -7.1869   -5.0335 C   0  0  0  0  0  0  0  0  0  0  0  0
  -29.8404   -5.8257   -5.3085 C   0  0  0  0  0  0  0  0  0  0  0  0
  -30.0721   -5.0182   -4.2782 N   0  0  0  0  0  0  0  0  0  0  0  0
  -30.0174   -3.6924   -4.4980 C   0  0  0  0  0  0  0  0  0  0  0  0
  -29.7545   -3.0910   -5.7249 C   0  0  0  0  0  0  0  0  0  0  0  0
  -29.6112   -3.9152   -6.8533 C   0  0  0  0  0  0  0  0  0  0  0  0
  -29.6190   -5.3523   -6.6264 C   0  0  0  0  0  0  0  0  0  0  0  0
  -29.4128   -6.3454   -7.6246 C   0  0  0  0  0  0  0  0  0  0  0  0
  -29.3927   -7.7180   -7.3378 C   0  0  0  0  0  0  0  0  0  0  0  0
  -28.3513   -9.9152   -4.9763 C   0  0  0  0  0  0  0  0  0  0  0  0
  -29.5590   -9.4367   -5.5665 O   0  0  0  0  0  0  0  0  0  0  0  0
  -29.5723   -1.6771   -5.6852 C   0  0  0  0  0  0  0  0  0  0  0  0
  -29.3178   -0.5432   -5.7278 N   0  0  0  0  0  0  0  0  0  0  0  0
  -29.3159   -3.4368   -8.1791 N   0  0  0  0  0  0  0  0  0  0  0  0
  -30.0538   -2.8234   -8.5075 H   0  0  0  0  0  0  0  0  0  0  0  0
  -27.9933   -3.0008   -8.6975 C   0  0  0  0  0  0  0  0  0  0  0  0
  -27.4563   -1.6350   -8.3981 C   0  0  0  0  0  0  0  0  0  0  0  0
  -27.9656   -1.9281   -9.7899 C   0  0  0  0  0  0  0  0  0  0  0  0
  -26.9946   -1.8180  -10.9591 C   0  0  0  0  0  0  0  0  0  0  0  0
  -27.3758   -1.9368  -12.3008 C   0  0  0  0  0  0  0  0  0  0  0  0
  -26.4861   -1.6365  -13.3516 C   0  0  0  0  0  0  0  0  0  0  0  0
  -25.1917   -1.2152  -13.0730 C   0  0  0  0  0  0  0  0  0  0  0  0
  -24.7683   -1.1189  -11.7548 C   0  0  0  0  0  0  0  0  0  0  0  0
  -25.6608   -1.4246  -10.7175 C   0  0  0  0  0  0  0  0  0  0  0  0
  -29.2567   -8.6894   -8.2809 O   0  0  0  0  0  0  0  0  0  0  0  0
  -30.4081   -9.3118   -8.8299 C   0  0  0  0  0  0  0  0  0  0  0  0
  -29.9914  -10.7306   -9.2023 C   0  0  0  0  0  0  0  0  0  0  0  0
  -28.4904  -10.8139   -9.4401 C   0  0  0  0  0  0  0  0  0  0  0  0
  -28.0930  -10.2531  -10.7742 C   0  0  0  0  0  0  0  0  0  0  0  0
  -28.8720  -10.4458  -11.9187 C   0  0  0  0  0  0  0  0  0  0  0  0
  -28.4582   -9.9021  -13.1371 C   0  0  0  0  0  0  0  0  0  0  0  0
  -27.2783   -9.1808  -13.1584 C   0  0  0  0  0  0  0  0  0  0  0  0
  -26.5027   -8.9617  -12.0790 N   0  0  0  0  0  0  0  0  0  0  0  0
  -26.9320   -9.5022  -10.9098 C   0  0  0  0  0  0  0  0  0  0  0  0
 11 12  1  0  0  0
 12  1  1  0  0  0
  1  2  1  0  0  0
  1 10  2  0  0  0
  2  3  2  0  0  0
  3  4  1  0  0  0
  3  8  1  0  0  0
  4  5  2  0  0  0
  5  6  1  0  0  0
  6 13  1  0  0  0
  6  7  2  0  0  0
 13 14  3  0  0  0
  7 15  1  0  0  0
  7  8  1  0  0  0
 15 17  1  0  0  0
 15 16  1  0  0  0
 17 18  1  0  0  0
 17 19  1  0  0  0
 18 19  1  0  0  0
 19 20  1  0  0  0
 20 21  1  0  0  0
 20 25  2  0  0  0
 21 22  2  0  0  0
 22 23  1  0  0  0
 23 24  2  0  0  0
 24 25  1  0  0  0
  8  9  2  0  0  0
  9 10  1  0  0  0
 10 26  1  0  0  0
 26 27  1  0  0  0
 27 28  1  0  0  0
 28 29  1  0  0  0
 29 30  1  0  0  0
 30 31  1  0  0  0
 30 35  2  0  0  0
 31 32  2  0  0  0
 32 33  1  0  0  0
 33 34  2  0  0  0
 34 35  1  0  0  0
M  END
> <minimizedAffinity>
-9.23770

$$$$
