CHEMBL3900567


 39 43  0  0  0  0  0  0  0  0999 V2000
  -28.7333   -8.3954   -5.7599 C   0  0  0  0  0  0  0  0  0  0  0  0
  -27.9612   -9.5282   -6.0378 C   0  0  0  0  0  0  0  0  0  0  0  0
  -27.5552   -9.8420   -7.3602 C   0  0  0  0  0  0  0  0  0  0  0  0
  -26.8188  -10.9706   -7.7507 C   0  0  0  0  0  0  0  0  0  0  0  0
  -26.4505  -11.1769   -9.0320 N   0  0  0  0  0  0  0  0  0  0  0  0
  -26.8217  -10.2611   -9.9264 C   0  0  0  0  0  0  0  0  0  0  0  0
  -27.5216   -9.1577   -9.6647 N   0  0  0  0  0  0  0  0  0  0  0  0
  -27.8760   -8.9626   -8.3932 C   0  0  0  0  0  0  0  0  0  0  0  0
  -28.6019   -7.8245   -8.0976 C   0  0  0  0  0  0  0  0  0  0  0  0
  -29.0739   -7.5336   -6.8086 C   0  0  0  0  0  0  0  0  0  0  0  0
  -28.2859   -9.0347   -3.5015 C   0  0  0  0  0  0  0  0  0  0  0  0
  -29.0230   -8.2539   -4.4322 O   0  0  0  0  0  0  0  0  0  0  0  0
  -26.4537  -11.9441   -6.7836 N   0  0  0  0  0  0  0  0  0  0  0  0
  -26.6083  -12.8710   -7.1647 H   0  0  0  0  0  0  0  0  0  0  0  0
  -25.2980  -11.8506   -5.9781 C   0  0  0  0  0  0  0  0  0  0  0  0
  -25.4125  -11.7189   -4.5872 C   0  0  0  0  0  0  0  0  0  0  0  0
  -24.2835  -11.5726   -3.7814 C   0  0  0  0  0  0  0  0  0  0  0  0
  -23.0154  -11.5630   -4.3602 C   0  0  0  0  0  0  0  0  0  0  0  0
  -21.6589  -11.3416   -3.3142 Cl  0  0  0  0  0  0  0  0  0  0  0  0
  -22.8836  -11.7226   -5.7446 C   0  0  0  0  0  0  0  0  0  0  0  0
  -21.3429  -11.7233   -6.5293 Cl  0  0  0  0  0  0  0  0  0  0  0  0
  -24.0216  -11.8764   -6.5480 C   0  0  0  0  0  0  0  0  0  0  0  0
  -29.8386   -6.4198   -6.5463 O   0  0  0  0  0  0  0  0  0  0  0  0
  -29.8311   -5.4488   -7.6038 C   0  0  0  0  0  0  0  0  0  0  0  0
  -29.0719   -4.2065   -7.2941 C   0  0  0  0  0  0  0  0  0  0  0  0
  -28.7377   -3.6805   -6.0630 C   0  0  0  0  0  0  0  0  0  0  0  0
  -27.9425   -2.1753   -6.2633 S   0  0  0  0  0  0  0  0  0  0  0  0
  -28.0838   -2.3393   -7.9691 C   0  0  0  0  0  0  0  0  0  0  0  0
  -28.7085   -3.4198   -8.3766 N   0  0  0  0  0  0  0  0  0  0  0  0
  -27.5351   -1.2884   -8.8860 C   0  0  0  0  0  0  0  0  0  0  0  0
  -26.6051   -1.9138   -9.7915 O   0  0  0  0  0  0  0  0  0  0  0  0
  -26.8487   -1.6447  -11.0955 C   0  0  0  0  0  0  0  0  0  0  0  0
  -27.9468   -1.5906  -11.6254 O   0  0  0  0  0  0  0  0  0  0  0  0
  -25.5774   -1.5174  -11.8452 C   0  0  0  0  0  0  0  0  0  0  0  0
  -25.5324   -1.3426  -13.2314 C   0  0  0  0  0  0  0  0  0  0  0  0
  -24.2962   -1.2192  -13.8751 C   0  0  0  0  0  0  0  0  0  0  0  0
  -23.1136   -1.2679  -13.1345 C   0  0  0  0  0  0  0  0  0  0  0  0
  -23.1581   -1.4553  -11.7532 C   0  0  0  0  0  0  0  0  0  0  0  0
  -24.3884   -1.5879  -11.1100 C   0  0  0  0  0  0  0  0  0  0  0  0
 11 12  1  0  0  0
 12  1  1  0  0  0
  1  2  1  0  0  0
  1 10  2  0  0  0
  2  3  2  0  0  0
  3  4  1  0  0  0
  3  8  1  0  0  0
  4 13  1  0  0  0
  4  5  2  0  0  0
 13 15  1  0  0  0
 13 14  1  0  0  0
 15 16  1  0  0  0
 15 22  2  0  0  0
 16 17  2  0  0  0
 17 18  1  0  0  0
 18 19  1  0  0  0
 18 20  2  0  0  0
 20 21  1  0  0  0
 20 22  1  0  0  0
  5  6  1  0  0  0
  6  7  2  0  0  0
  7  8  1  0  0  0
  8  9  2  0  0  0
  9 10  1  0  0  0
 10 23  1  0  0  0
 23 24  1  0  0  0
 24 25  1  0  0  0
 25 26  2  0  0  0
 25 29  1  0  0  0
 26 27  1  0  0  0
 27 28  1  0  0  0
 28 30  1  0  0  0
 28 29  2  0  0  0
 30 31  1  0  0  0
 31 32  1  0  0  0
 32 33  2  0  0  0
 32 34  1  0  0  0
 34 35  1  0  0  0
 34 39  2  0  0  0
 35 36  2  0  0  0
 36 37  1  0  0  0
 37 38  2  0  0  0
 38 39  1  0  0  0
M  END
> <minimizedAffinity>
-9.05446

$$$$
