CHEMBL426929


 28 30  0  0  0  0  0  0  0  0999 V2000
  -20.3287    1.6115  -14.6628 C   0  0  0  0  0  0  0  0  0  0  0  0
  -20.2429    2.9992  -14.6931 C   0  0  0  0  0  0  0  0  0  0  0  0
  -19.1249    3.6745  -15.1793 N   0  0  0  0  0  0  0  0  0  0  0  0
  -21.2759    3.8027  -14.3833 N   0  0  0  0  0  0  0  0  0  0  0  0
  -22.4074    3.2017  -14.0057 C   0  0  0  0  0  0  0  0  0  0  0  0
  -22.6004    1.8844  -13.9355 N   0  0  0  0  0  0  0  0  0  0  0  0
  -21.5617    1.1002  -14.3052 C   0  0  0  0  0  0  0  0  0  0  0  0
  -18.2579    3.2516  -14.8474 H   0  0  0  0  0  0  0  0  0  0  0  0
  -19.2120    4.6669  -14.9940 H   0  0  0  0  0  0  0  0  0  0  0  0
  -17.9790    1.0876  -14.5481 N   0  0  0  0  0  0  0  0  0  0  0  0
  -19.1647    0.7549  -14.9659 C   0  0  0  0  0  0  0  0  0  0  0  0
  -17.0322    0.1406  -14.9633 O   0  0  0  0  0  0  0  0  0  0  0  0
  -15.7978    0.4398  -14.3012 C   0  0  0  0  0  0  0  0  0  0  0  0
  -15.5363   -1.4447  -12.6423 C   0  0  0  0  0  0  0  0  0  0  0  0
  -15.8984    0.0179  -12.8416 C   0  0  0  0  0  0  0  0  0  0  0  0
  -21.7568   -0.2790  -14.2942 O   0  0  0  0  0  0  0  0  0  0  0  0
  -22.7967   -0.7723  -13.5223 C   0  0  0  0  0  0  0  0  0  0  0  0
  -22.6512   -1.0573  -12.1589 C   0  0  0  0  0  0  0  0  0  0  0  0
  -23.7049   -1.5734  -11.4020 C   0  0  0  0  0  0  0  0  0  0  0  0
  -24.9461   -1.7052  -12.0288 C   0  0  0  0  0  0  0  0  0  0  0  0
  -26.1490   -2.1324  -11.5163 N   0  0  0  0  0  0  0  0  0  0  0  0
  -27.1512   -1.9344  -12.4319 C   0  0  0  0  0  0  0  0  0  0  0  0
  -28.5818   -2.0962  -12.0700 C   0  0  0  0  0  0  0  0  0  0  0  0
  -26.5499   -1.5525  -13.6165 C   0  0  0  0  0  0  0  0  0  0  0  0
  -25.1570   -1.3690  -13.3666 C   0  0  0  0  0  0  0  0  0  0  0  0
  -24.0551   -0.9140  -14.1269 C   0  0  0  0  0  0  0  0  0  0  0  0
  -24.2192   -0.5884  -15.4192 F   0  0  0  0  0  0  0  0  0  0  0  0
  -26.2826   -2.4525  -10.5667 H   0  0  0  0  0  0  0  0  0  0  0  0
 14 15  1  0  0  0
 15 13  1  0  0  0
 13 12  1  0  0  0
 12 10  1  0  0  0
 10 11  2  0  0  0
 11  1  1  0  0  0
  1  2  1  0  0  0
  1  7  2  0  0  0
  2  3  1  0  0  0
  2  4  2  0  0  0
  3  8  1  0  0  0
  3  9  1  0  0  0
  4  5  1  0  0  0
  5  6  2  0  0  0
  6  7  1  0  0  0
  7 16  1  0  0  0
 16 17  1  0  0  0
 17 18  1  0  0  0
 17 26  2  0  0  0
 18 19  2  0  0  0
 19 20  1  0  0  0
 20 21  1  0  0  0
 20 25  2  0  0  0
 21 22  1  0  0  0
 21 28  1  0  0  0
 22 23  1  0  0  0
 22 24  2  0  0  0
 24 25  1  0  0  0
 25 26  1  0  0  0
 26 27  1  0  0  0
M  END
> <minimizedAffinity>
-8.46974

$$$$
