CHEMBL3125890


 41 45  0  0  0  0  0  0  0  0999 V2000
  -11.5780   -2.3409  -16.6663 C   0  0  0  0  0  0  0  0  0  0  0  0
  -10.9745   -2.4871  -17.9190 C   0  0  0  0  0  0  0  0  0  0  0  0
  -10.8293   -3.7592  -18.4802 C   0  0  0  0  0  0  0  0  0  0  0  0
  -11.3073   -4.8709  -17.7933 C   0  0  0  0  0  0  0  0  0  0  0  0
  -11.1142   -6.0960  -18.3059 F   0  0  0  0  0  0  0  0  0  0  0  0
  -11.9203   -4.7332  -16.5509 C   0  0  0  0  0  0  0  0  0  0  0  0
  -12.0933   -3.4613  -16.0051 C   0  0  0  0  0  0  0  0  0  0  0  0
  -12.3633   -5.8776  -15.8625 N   0  0  0  0  0  0  0  0  0  0  0  0
  -13.4769   -6.5849  -16.2991 C   0  0  0  0  0  0  0  0  0  0  0  0
  -14.1696   -6.2748  -17.2679 O   0  0  0  0  0  0  0  0  0  0  0  0
  -12.1779   -5.9038  -14.8692 H   0  0  0  0  0  0  0  0  0  0  0  0
  -13.7580   -7.8359  -15.4804 C   0  0  0  0  0  0  0  0  0  0  0  0
  -14.1365   -7.4523  -14.0713 C   0  0  0  0  0  0  0  0  0  0  0  0
  -13.3557   -7.9075  -12.9974 C   0  0  0  0  0  0  0  0  0  0  0  0
  -13.5881   -7.4442  -11.7083 C   0  0  0  0  0  0  0  0  0  0  0  0
  -14.6277   -6.5482  -11.4676 C   0  0  0  0  0  0  0  0  0  0  0  0
  -15.4588   -6.1236  -12.5159 C   0  0  0  0  0  0  0  0  0  0  0  0
  -15.2001   -6.5777  -13.8196 C   0  0  0  0  0  0  0  0  0  0  0  0
  -16.6127   -5.1823  -12.2601 C   0  0  0  0  0  0  0  0  0  0  0  0
  -16.6766   -4.1400  -13.1355 F   0  0  0  0  0  0  0  0  0  0  0  0
  -17.8153   -5.8088  -12.3393 F   0  0  0  0  0  0  0  0  0  0  0  0
  -16.5596   -4.6249  -11.0216 F   0  0  0  0  0  0  0  0  0  0  0  0
  -11.6495   -1.0591  -16.1642 O   0  0  0  0  0  0  0  0  0  0  0  0
  -13.6186   -0.2304  -15.1134 C   0  0  0  0  0  0  0  0  0  0  0  0
  -12.8393   -0.3618  -16.2719 C   0  0  0  0  0  0  0  0  0  0  0  0
  -13.2924    0.1654  -17.4836 C   0  0  0  0  0  0  0  0  0  0  0  0
  -14.4734    0.9068  -17.5439 C   0  0  0  0  0  0  0  0  0  0  0  0
  -15.2648    1.0569  -16.3919 C   0  0  0  0  0  0  0  0  0  0  0  0
  -16.4799    1.7121  -16.3438 N   0  0  0  0  0  0  0  0  0  0  0  0
  -16.9685    1.6261  -15.1391 C   0  0  0  0  0  0  0  0  0  0  0  0
  -16.0029    0.8510  -13.9709 S   0  0  0  0  0  0  0  0  0  0  0  0
  -14.8290    0.4880  -15.1884 C   0  0  0  0  0  0  0  0  0  0  0  0
  -18.1668    2.0445  -14.6519 N   0  0  0  0  0  0  0  0  0  0  0  0
  -19.3462    1.3777  -14.8472 C   0  0  0  0  0  0  0  0  0  0  0  0
  -19.5650    0.3586  -15.4852 O   0  0  0  0  0  0  0  0  0  0  0  0
  -18.1546    2.8628  -14.0614 H   0  0  0  0  0  0  0  0  0  0  0  0
  -20.4607    2.0439  -14.0762 C   0  0  0  0  0  0  0  0  0  0  0  0
  -20.9045    3.1512  -15.1476 C   0  0  0  0  0  0  0  0  0  0  0  0
  -21.8311    2.7050  -14.1525 C   0  0  0  0  0  0  0  0  0  0  0  0
  -12.9084   -1.2721  -12.8522 N   0  0  0  0  0  0  0  0  0  0  0  0
  -13.2314   -0.8012  -13.8586 C   0  0  0  0  0  0  0  0  0  0  0  0
 40 41  3  0  0  0
 41 24  1  0  0  0
 24 25  1  0  0  0
 24 32  2  0  0  0
 25 23  1  0  0  0
 25 26  2  0  0  0
 23  1  1  0  0  0
  1  2  1  0  0  0
  1  7  2  0  0  0
  2  3  2  0  0  0
  3  4  1  0  0  0
  4  5  1  0  0  0
  4  6  2  0  0  0
  6  8  1  0  0  0
  6  7  1  0  0  0
  8  9  1  0  0  0
  8 11  1  0  0  0
  9 10  2  0  0  0
  9 12  1  0  0  0
 12 13  1  0  0  0
 13 14  1  0  0  0
 13 18  2  0  0  0
 14 15  2  0  0  0
 15 16  1  0  0  0
 16 17  2  0  0  0
 17 19  1  0  0  0
 17 18  1  0  0  0
 19 20  1  0  0  0
 19 21  1  0  0  0
 19 22  1  0  0  0
 26 27  1  0  0  0
 27 28  2  0  0  0
 28 29  1  0  0  0
 28 32  1  0  0  0
 29 30  2  0  0  0
 30 33  1  0  0  0
 30 31  1  0  0  0
 33 34  1  0  0  0
 33 36  1  0  0  0
 34 35  2  0  0  0
 34 37  1  0  0  0
 37 38  1  0  0  0
 37 39  1  0  0  0
 38 39  1  0  0  0
 31 32  1  0  0  0
M  END
> <minimizedAffinity>
-8.03277

$$$$
