CHEMBL3918670


 37 40  0  0  0  0  0  0  0  0999 V2000
  -14.2407    0.0105  -13.3359 C   0  0  0  0  0  0  0  0  0  0  0  0
  -14.2157    0.9561  -14.3762 C   0  0  0  0  0  0  0  0  0  0  0  0
  -15.4062    1.5343  -14.8987 C   0  0  0  0  0  0  0  0  0  0  0  0
  -15.5026    2.4179  -15.9754 C   0  0  0  0  0  0  0  0  0  0  0  0
  -16.6807    2.9427  -16.3759 N   0  0  0  0  0  0  0  0  0  0  0  0
  -17.7761    2.5745  -15.7052 C   0  0  0  0  0  0  0  0  0  0  0  0
  -17.7986    1.7326  -14.6813 N   0  0  0  0  0  0  0  0  0  0  0  0
  -16.6199    1.2327  -14.3001 C   0  0  0  0  0  0  0  0  0  0  0  0
  -16.6323    0.3471  -13.2538 C   0  0  0  0  0  0  0  0  0  0  0  0
  -15.4829   -0.3297  -12.7949 C   0  0  0  0  0  0  0  0  0  0  0  0
  -12.3955   -1.5189  -13.7904 C   0  0  0  0  0  0  0  0  0  0  0  0
  -12.9902   -0.4566  -13.0682 O   0  0  0  0  0  0  0  0  0  0  0  0
  -14.3328    2.7765  -16.6992 N   0  0  0  0  0  0  0  0  0  0  0  0
  -13.5623    2.9055  -16.0547 H   0  0  0  0  0  0  0  0  0  0  0  0
  -13.9682    2.1474  -17.9084 C   0  0  0  0  0  0  0  0  0  0  0  0
  -14.3548    0.8164  -18.1391 C   0  0  0  0  0  0  0  0  0  0  0  0
  -13.9209    0.1310  -19.2738 C   0  0  0  0  0  0  0  0  0  0  0  0
  -13.1030    0.7712  -20.1961 C   0  0  0  0  0  0  0  0  0  0  0  0
  -12.5513   -0.1544  -21.5477 Cl  0  0  0  0  0  0  0  0  0  0  0  0
  -12.7442    2.1109  -19.9990 C   0  0  0  0  0  0  0  0  0  0  0  0
  -11.7341    2.9647  -21.1124 Cl  0  0  0  0  0  0  0  0  0  0  0  0
  -13.1834    2.7987  -18.8575 C   0  0  0  0  0  0  0  0  0  0  0  0
  -15.6136   -1.3192  -11.8493 O   0  0  0  0  0  0  0  0  0  0  0  0
  -15.7034   -2.6312  -12.4263 C   0  0  0  0  0  0  0  0  0  0  0  0
  -14.7444   -3.6234  -11.8046 C   0  0  0  0  0  0  0  0  0  0  0  0
  -15.4974   -4.8644  -11.2852 C   0  0  0  0  0  0  0  0  0  0  0  0
  -14.6081   -5.8029  -10.5630 N   0  0  0  0  0  0  0  0  0  0  0  0
  -13.9528   -5.0268   -9.4846 C   0  0  0  0  0  0  0  0  0  0  0  0
  -13.2108   -3.7807   -9.9901 C   0  0  0  0  0  0  0  0  0  0  0  0
  -14.0842   -2.9236  -10.7279 O   0  0  0  0  0  0  0  0  0  0  0  0
  -13.6517   -6.4163  -11.5075 C   0  0  0  0  0  0  0  0  0  0  0  0
  -13.8728   -7.9124  -11.7243 C   0  0  0  0  0  0  0  0  0  0  0  0
  -14.5866   -8.1106  -12.9495 O   0  0  0  0  0  0  0  0  0  0  0  0
  -13.8443   -7.5526  -14.0430 C   0  0  0  0  0  0  0  0  0  0  0  0
  -14.7940   -6.7770  -14.9426 C   0  0  0  0  0  0  0  0  0  0  0  0
  -16.1427   -6.9720  -14.5230 O   0  0  0  0  0  0  0  0  0  0  0  0
  -16.2741   -7.9392  -14.5167 H   0  0  0  0  0  0  0  0  0  0  0  0
 11 12  1  0  0  0
 12  1  1  0  0  0
  1  2  1  0  0  0
  1 10  2  0  0  0
  2  3  2  0  0  0
  3  4  1  0  0  0
  3  8  1  0  0  0
  4 13  1  0  0  0
  4  5  2  0  0  0
 13 15  1  0  0  0
 13 14  1  0  0  0
 15 16  1  0  0  0
 15 22  2  0  0  0
 16 17  2  0  0  0
 17 18  1  0  0  0
 18 19  1  0  0  0
 18 20  2  0  0  0
 20 21  1  0  0  0
 20 22  1  0  0  0
  5  6  1  0  0  0
  6  7  2  0  0  0
  7  8  1  0  0  0
  8  9  2  0  0  0
  9 10  1  0  0  0
 10 23  1  0  0  0
 23 24  1  0  0  0
 24 25  1  0  0  0
 25 26  1  0  0  0
 25 30  1  0  0  0
 26 27  1  0  0  0
 27 31  1  0  0  0
 27 28  1  0  0  0
 31 32  1  0  0  0
 32 33  1  0  0  0
 33 34  1  0  0  0
 34 35  1  0  0  0
 35 36  1  0  0  0
 36 37  1  0  0  0
 28 29  1  0  0  0
 29 30  1  0  0  0
M  END
> <minimizedAffinity>
-7.10854

$$$$
