CHEMBL3914503


 30 34  0  0  0  0  0  0  0  0999 V2000
  -29.4574   -3.8734   -5.6716 C   0  0  0  0  0  0  0  0  0  0  0  0
  -29.2792   -4.4218   -6.9584 C   0  0  0  0  0  0  0  0  0  0  0  0
  -28.6456   -3.7208   -7.9977 C   0  0  0  0  0  0  0  0  0  0  0  0
  -28.1959   -2.4133   -7.7604 C   0  0  0  0  0  0  0  0  0  0  0  0
  -27.5320   -1.3996   -8.4977 C   0  0  0  0  0  0  0  0  0  0  0  0
  -27.3246   -0.2893   -7.7708 N   0  0  0  0  0  0  0  0  0  0  0  0
  -27.8732   -0.5967   -6.5791 N   0  0  0  0  0  0  0  0  0  0  0  0
  -28.3824   -1.8643   -6.5016 C   0  0  0  0  0  0  0  0  0  0  0  0
  -28.9807   -2.5642   -5.4457 C   0  0  0  0  0  0  0  0  0  0  0  0
  -27.8679    0.1060   -5.8486 H   0  0  0  0  0  0  0  0  0  0  0  0
  -27.0783   -1.5082   -9.9129 C   0  0  0  0  0  0  0  0  0  0  0  0
  -25.8319   -1.4340  -10.3316 N   0  0  0  0  0  0  0  0  0  0  0  0
  -25.8992   -1.5756  -11.6936 C   0  0  0  0  0  0  0  0  0  0  0  0
  -24.8663   -1.5837  -12.6403 C   0  0  0  0  0  0  0  0  0  0  0  0
  -25.1978   -1.7391  -13.9917 C   0  0  0  0  0  0  0  0  0  0  0  0
  -26.5300   -1.8809  -14.3892 C   0  0  0  0  0  0  0  0  0  0  0  0
  -27.5753   -1.8824  -13.4574 C   0  0  0  0  0  0  0  0  0  0  0  0
  -27.2153   -1.7310  -12.1178 C   0  0  0  0  0  0  0  0  0  0  0  0
  -27.9442   -1.7001  -10.9585 N   0  0  0  0  0  0  0  0  0  0  0  0
  -28.9449   -1.7859  -10.8545 H   0  0  0  0  0  0  0  0  0  0  0  0
  -29.5372   -5.8562   -4.0372 C   0  0  0  0  0  0  0  0  0  0  0  0
  -30.2147   -6.5694   -3.0338 C   0  0  0  0  0  0  0  0  0  0  0  0
  -31.4330   -6.1049   -2.5486 C   0  0  0  0  0  0  0  0  0  0  0  0
  -32.1141   -6.7694   -1.5717 O   0  0  0  0  0  0  0  0  0  0  0  0
  -31.9967   -4.9439   -3.0448 C   0  0  0  0  0  0  0  0  0  0  0  0
  -31.3414   -4.2418   -4.0566 C   0  0  0  0  0  0  0  0  0  0  0  0
  -30.0998   -4.6691   -4.5815 C   0  0  0  0  0  0  0  0  0  0  0  0
  -31.6147   -7.5634   -1.3220 H   0  0  0  0  0  0  0  0  0  0  0  0
  -28.0473   -7.6159   -4.7203 C   0  0  0  0  0  0  0  0  0  0  0  0
  -28.3061   -6.2347   -4.5177 O   0  0  0  0  0  0  0  0  0  0  0  0
 29 30  1  0  0  0
 30 21  1  0  0  0
 21 22  1  0  0  0
 21 27  2  0  0  0
 22 23  2  0  0  0
 23 24  1  0  0  0
 23 25  1  0  0  0
 24 28  1  0  0  0
 25 26  2  0  0  0
 26 27  1  0  0  0
 27  1  1  0  0  0
  1  2  1  0  0  0
  1  9  2  0  0  0
  2  3  2  0  0  0
  3  4  1  0  0  0
  4  5  1  0  0  0
  4  8  2  0  0  0
  5 11  1  0  0  0
  5  6  2  0  0  0
 11 12  2  0  0  0
 11 19  1  0  0  0
 12 13  1  0  0  0
 13 14  1  0  0  0
 13 18  2  0  0  0
 14 15  2  0  0  0
 15 16  1  0  0  0
 16 17  2  0  0  0
 17 18  1  0  0  0
 18 19  1  0  0  0
 19 20  1  0  0  0
  6  7  1  0  0  0
  7  8  1  0  0  0
  7 10  1  0  0  0
  8  9  1  0  0  0
M  END
> <minimizedAffinity>
-9.40026

$$$$
