CHEMBL4077373


 36 41  0  0  0  0  0  0  0  0999 V2000
  -14.9873   -1.5604  -12.4890 C   0  0  0  0  0  0  0  0  0  0  0  0
  -13.8616   -2.0736  -13.1464 C   0  0  0  0  0  0  0  0  0  0  0  0
  -13.7269   -3.4345  -13.3901 C   0  0  0  0  0  0  0  0  0  0  0  0
  -14.7227   -4.2977  -12.9149 C   0  0  0  0  0  0  0  0  0  0  0  0
  -15.8059   -3.8280  -12.1616 C   0  0  0  0  0  0  0  0  0  0  0  0
  -16.5750   -4.9708  -11.8032 C   0  0  0  0  0  0  0  0  0  0  0  0
  -16.0303   -6.0685  -12.4379 C   0  0  0  0  0  0  0  0  0  0  0  0
  -14.8840   -5.6687  -13.1025 N   0  0  0  0  0  0  0  0  0  0  0  0
  -13.9799   -6.5098  -13.7733 C   0  0  0  0  0  0  0  0  0  0  0  0
  -12.8115   -6.5280  -13.4106 O   0  0  0  0  0  0  0  0  0  0  0  0
  -14.5526   -7.0985  -14.8760 N   0  0  0  0  0  0  0  0  0  0  0  0
  -15.9291   -2.4341  -11.9282 C   0  0  0  0  0  0  0  0  0  0  0  0
  -15.3595   -6.6542  -15.3022 H   0  0  0  0  0  0  0  0  0  0  0  0
  -13.7378   -7.7855  -15.7687 C   0  0  0  0  0  0  0  0  0  0  0  0
  -13.5745   -7.5287  -17.1484 C   0  0  0  0  0  0  0  0  0  0  0  0
  -12.7639   -8.5390  -17.6044 C   0  0  0  0  0  0  0  0  0  0  0  0
  -12.4264   -9.3352  -16.5523 O   0  0  0  0  0  0  0  0  0  0  0  0
  -12.9838   -8.8214  -15.3839 N   0  0  0  0  0  0  0  0  0  0  0  0
  -12.3347   -8.7167  -19.0519 C   0  0  0  0  0  0  0  0  0  0  0  0
  -13.1604   -9.6071  -19.9558 C   0  0  0  0  0  0  0  0  0  0  0  0
  -11.8164  -10.0649  -19.5044 C   0  0  0  0  0  0  0  0  0  0  0  0
  -15.2064   -0.1920  -12.3828 O   0  0  0  0  0  0  0  0  0  0  0  0
  -13.3856    5.3254  -15.7362 C   0  0  0  0  0  0  0  0  0  0  0  0
  -12.3689    4.3340  -15.2203 C   0  0  0  0  0  0  0  0  0  0  0  0
  -11.3698    4.7573  -14.6413 O   0  0  0  0  0  0  0  0  0  0  0  0
  -12.6278    2.9847  -15.4217 N   0  0  0  0  0  0  0  0  0  0  0  0
  -13.7357    2.5038  -16.2460 C   0  0  0  0  0  0  0  0  0  0  0  0
  -14.7685    1.7521  -15.4316 C   0  0  0  0  0  0  0  0  0  0  0  0
  -15.9809    1.6137  -16.0104 N   0  0  0  0  0  0  0  0  0  0  0  0
  -16.8944    0.9407  -15.3082 C   0  0  0  0  0  0  0  0  0  0  0  0
  -16.7036    0.3892  -14.1097 N   0  0  0  0  0  0  0  0  0  0  0  0
  -15.4631    0.4865  -13.5831 C   0  0  0  0  0  0  0  0  0  0  0  0
  -14.4407    1.1934  -14.1960 C   0  0  0  0  0  0  0  0  0  0  0  0
  -13.0879    1.4276  -13.5731 C   0  0  0  0  0  0  0  0  0  0  0  0
  -12.0323    1.9128  -14.5959 C   0  0  0  0  0  0  0  0  0  0  0  0
  -10.7106    2.2217  -13.8872 C   0  0  0  0  0  0  0  0  0  0  0  0
 23 24  1  0  0  0
 24 25  2  0  0  0
 24 26  1  0  0  0
 26 27  1  0  0  0
 26 35  1  0  0  0
 27 28  1  0  0  0
 28 29  1  0  0  0
 28 33  2  0  0  0
 29 30  2  0  0  0
 30 31  1  0  0  0
 31 32  2  0  0  0
 32 22  1  0  0  0
 32 33  1  0  0  0
 22  1  1  0  0  0
  1  2  1  0  0  0
  1 12  2  0  0  0
  2  3  2  0  0  0
  3  4  1  0  0  0
  4  5  2  0  0  0
  4  8  1  0  0  0
  5  6  1  0  0  0
  5 12  1  0  0  0
  6  7  2  0  0  0
  7  8  1  0  0  0
  8  9  1  0  0  0
  9 10  2  0  0  0
  9 11  1  0  0  0
 11 14  1  0  0  0
 11 13  1  0  0  0
 14 15  1  0  0  0
 14 18  2  0  0  0
 15 16  2  0  0  0
 16 19  1  0  0  0
 16 17  1  0  0  0
 19 20  1  0  0  0
 19 21  1  0  0  0
 20 21  1  0  0  0
 17 18  1  0  0  0
 33 34  1  0  0  0
 34 35  1  0  0  0
 35 36  1  0  0  0
M  END
> <minimizedAffinity>
-8.24486

$$$$
