CHEMBL3397935


 33 36  0  0  0  0  0  0  0  0999 V2000
  -28.2947   -0.4106  -10.8236 O   0  0  0  0  0  0  0  0  0  0  0  0
  -27.4415   -1.2729  -10.9947 C   0  0  0  0  0  0  0  0  0  0  0  0
  -27.0547   -2.2422  -10.0820 N   0  0  0  0  0  0  0  0  0  0  0  0
  -26.2060   -2.7555  -10.2866 H   0  0  0  0  0  0  0  0  0  0  0  0
  -27.6042   -2.4417   -8.7995 C   0  0  0  0  0  0  0  0  0  0  0  0
  -28.1837   -3.6442   -8.3863 C   0  0  0  0  0  0  0  0  0  0  0  0
  -28.7993   -3.7461   -7.1343 C   0  0  0  0  0  0  0  0  0  0  0  0
  -28.8484   -2.6461   -6.2826 C   0  0  0  0  0  0  0  0  0  0  0  0
  -28.1853   -1.4756   -6.6647 C   0  0  0  0  0  0  0  0  0  0  0  0
  -28.1411   -0.4033   -5.8595 F   0  0  0  0  0  0  0  0  0  0  0  0
  -27.5699   -1.3678   -7.9100 C   0  0  0  0  0  0  0  0  0  0  0  0
  -29.5789   -2.8272   -5.1349 O   0  0  0  0  0  0  0  0  0  0  0  0
  -30.5510   -3.8767   -5.2197 C   0  0  0  0  0  0  0  0  0  0  0  0
  -30.6369   -4.6382   -3.8865 C   0  0  0  0  0  0  0  0  0  0  0  0
  -30.6476   -6.1019   -4.0808 N   0  0  0  0  0  0  0  0  0  0  0  0
  -29.4285   -6.7365   -3.5592 C   0  0  0  0  0  0  0  0  0  0  0  0
  -28.5515   -6.9685   -4.7733 C   0  0  0  0  0  0  0  0  0  0  0  0
  -29.5630   -7.3634   -5.8254 C   0  0  0  0  0  0  0  0  0  0  0  0
  -30.7581   -6.4832   -5.5045 C   0  0  0  0  0  0  0  0  0  0  0  0
  -26.6793   -1.2660  -12.2662 C   0  0  0  0  0  0  0  0  0  0  0  0
  -27.2170   -1.9257  -13.3725 C   0  0  0  0  0  0  0  0  0  0  0  0
  -26.5126   -1.9452  -14.5713 C   0  0  0  0  0  0  0  0  0  0  0  0
  -25.2749   -1.2992  -14.6659 C   0  0  0  0  0  0  0  0  0  0  0  0
  -24.7177   -0.6056  -13.5744 C   0  0  0  0  0  0  0  0  0  0  0  0
  -25.4380   -0.6247  -12.3660 C   0  0  0  0  0  0  0  0  0  0  0  0
  -23.4663    0.1813  -13.6934 C   0  0  0  0  0  0  0  0  0  0  0  0
  -22.2412   -0.4424  -13.9958 C   0  0  0  0  0  0  0  0  0  0  0  0
  -21.0785    0.2999  -14.2280 C   0  0  0  0  0  0  0  0  0  0  0  0
  -21.1164    1.6900  -14.1834 C   0  0  0  0  0  0  0  0  0  0  0  0
  -22.3112    2.3217  -13.8721 C   0  0  0  0  0  0  0  0  0  0  0  0
  -22.4114    3.6824  -13.8501 O   0  0  0  0  0  0  0  0  0  0  0  0
  -23.4631    1.5857  -13.6029 C   0  0  0  0  0  0  0  0  0  0  0  0
  -21.5874    4.0576  -14.2021 H   0  0  0  0  0  0  0  0  0  0  0  0
  1  2  2  0  0  0
  2  3  1  0  0  0
  2 20  1  0  0  0
  3  5  1  0  0  0
  3  4  1  0  0  0
  5  6  1  0  0  0
  5 11  2  0  0  0
  6  7  2  0  0  0
  7  8  1  0  0  0
  8 12  1  0  0  0
  8  9  2  0  0  0
 12 13  1  0  0  0
 13 14  1  0  0  0
 14 15  1  0  0  0
 15 16  1  0  0  0
 15 19  1  0  0  0
 16 17  1  0  0  0
 17 18  1  0  0  0
 18 19  1  0  0  0
  9 10  1  0  0  0
  9 11  1  0  0  0
 20 21  1  0  0  0
 20 25  2  0  0  0
 21 22  2  0  0  0
 22 23  1  0  0  0
 23 24  2  0  0  0
 24 26  1  0  0  0
 24 25  1  0  0  0
 26 27  1  0  0  0
 26 32  2  0  0  0
 27 28  2  0  0  0
 28 29  1  0  0  0
 29 30  2  0  0  0
 30 31  1  0  0  0
 30 32  1  0  0  0
 31 33  1  0  0  0
M  END
> <minimizedAffinity>
-10.26497

$$$$
