CHEMBL3898908


 34 38  0  0  0  0  0  0  0  0999 V2000
  -16.2841    2.0499  -15.4862 N   0  0  0  0  0  0  0  0  0  0  0  0
  -17.7310    2.0208  -15.5382 C   0  0  0  0  0  0  0  0  0  0  0  0
  -18.3157    3.2751  -15.6975 C   0  0  0  0  0  0  0  0  0  0  0  0
  -19.5973    3.5235  -15.2521 C   0  0  0  0  0  0  0  0  0  0  0  0
  -20.3929    2.5218  -14.7540 C   0  0  0  0  0  0  0  0  0  0  0  0
  -21.5333    2.9727  -14.2177 N   0  0  0  0  0  0  0  0  0  0  0  0
  -22.4180    2.0313  -13.8237 C   0  0  0  0  0  0  0  0  0  0  0  0
  -22.1987    0.7014  -14.0297 C   0  0  0  0  0  0  0  0  0  0  0  0
  -20.9827    0.2216  -14.4925 N   0  0  0  0  0  0  0  0  0  0  0  0
  -20.0014    1.1610  -14.8305 C   0  0  0  0  0  0  0  0  0  0  0  0
  -18.6056    0.9459  -15.1889 C   0  0  0  0  0  0  0  0  0  0  0  0
  -23.3647   -0.1661  -13.8263 C   0  0  0  0  0  0  0  0  0  0  0  0
  -24.2506   -0.7325  -14.7858 C   0  0  0  0  0  0  0  0  0  0  0  0
  -25.3549   -1.2579  -14.2374 N   0  0  0  0  0  0  0  0  0  0  0  0
  -25.1903   -1.0233  -12.9252 N   0  0  0  0  0  0  0  0  0  0  0  0
  -26.0017   -1.7122  -11.9479 C   0  0  0  0  0  0  0  0  0  0  0  0
  -24.1170   -0.2139  -12.6610 C   0  0  0  0  0  0  0  0  0  0  0  0
  -14.9455    4.5810  -17.8812 C   0  0  0  0  0  0  0  0  0  0  0  0
  -13.9201    5.1593  -17.1323 C   0  0  0  0  0  0  0  0  0  0  0  0
  -13.6223    4.6593  -15.8662 C   0  0  0  0  0  0  0  0  0  0  0  0
  -14.3630    3.5887  -15.3449 C   0  0  0  0  0  0  0  0  0  0  0  0
  -15.3918    2.9758  -16.0705 C   0  0  0  0  0  0  0  0  0  0  0  0
  -15.6461    3.4733  -17.3626 C   0  0  0  0  0  0  0  0  0  0  0  0
  -14.7767    6.2317  -19.6076 C   0  0  0  0  0  0  0  0  0  0  0  0
  -15.3734    5.0369  -19.1038 O   0  0  0  0  0  0  0  0  0  0  0  0
  -12.6651    5.1458  -15.0163 O   0  0  0  0  0  0  0  0  0  0  0  0
  -12.2379    6.4868  -15.2167 C   0  0  0  0  0  0  0  0  0  0  0  0
  -15.8014    0.6238  -15.3975 C   0  0  0  0  0  0  0  0  0  0  0  0
  -15.7199   -0.1753  -14.1277 C   0  0  0  0  0  0  0  0  0  0  0  0
  -15.5465   -1.4759  -13.7026 C   0  0  0  0  0  0  0  0  0  0  0  0
  -15.6497   -1.4055  -12.2827 C   0  0  0  0  0  0  0  0  0  0  0  0
  -15.6678   -2.4869  -11.2671 C   0  0  0  0  0  0  0  0  0  0  0  0
  -15.7895   -0.1408  -11.8762 N   0  0  0  0  0  0  0  0  0  0  0  0
  -15.8263    0.6190  -13.0188 O   0  0  0  0  0  0  0  0  0  0  0  0
 24 25  1  0  0  0
 25 18  1  0  0  0
 18 19  1  0  0  0
 18 23  2  0  0  0
 19 20  2  0  0  0
 20 26  1  0  0  0
 20 21  1  0  0  0
 26 27  1  0  0  0
 21 22  2  0  0  0
 22  1  1  0  0  0
 22 23  1  0  0  0
  1 28  1  0  0  0
  1  2  1  0  0  0
 28 29  1  0  0  0
 29 30  2  0  0  0
 29 34  1  0  0  0
 30 31  1  0  0  0
 31 32  1  0  0  0
 31 33  2  0  0  0
 33 34  1  0  0  0
  2  3  1  0  0  0
  2 11  2  0  0  0
  3  4  2  0  0  0
  4  5  1  0  0  0
  5  6  1  0  0  0
  5 10  2  0  0  0
  6  7  2  0  0  0
  7  8  1  0  0  0
  8 12  1  0  0  0
  8  9  2  0  0  0
 12 13  1  0  0  0
 12 17  2  0  0  0
 13 14  2  0  0  0
 14 15  1  0  0  0
 15 16  1  0  0  0
 15 17  1  0  0  0
  9 10  1  0  0  0
 10 11  1  0  0  0
M  END
> <minimizedAffinity>
-9.30949

$$$$
