CHEMBL3114026


 27 30  0  0  0  0  0  0  0  0999 V2000
  -16.5969    1.5326  -15.1499 C   0  0  0  0  0  0  0  0  0  0  0  0
  -15.6894    1.3378  -16.1808 C   0  0  0  0  0  0  0  0  0  0  0  0
  -14.6399    0.4901  -15.9475 C   0  0  0  0  0  0  0  0  0  0  0  0
  -14.4781   -0.1554  -14.7948 N   0  0  0  0  0  0  0  0  0  0  0  0
  -15.3928    0.0495  -13.8359 C   0  0  0  0  0  0  0  0  0  0  0  0
  -16.4225    0.8982  -13.9646 N   0  0  0  0  0  0  0  0  0  0  0  0
  -17.5104    3.5520  -16.2087 C   0  0  0  0  0  0  0  0  0  0  0  0
  -17.7133    2.3945  -15.3283 N   0  0  0  0  0  0  0  0  0  0  0  0
  -19.0418    2.1583  -14.8677 C   0  0  0  0  0  0  0  0  0  0  0  0
  -19.8402    3.2879  -14.4404 C   0  0  0  0  0  0  0  0  0  0  0  0
  -21.2019    3.2383  -14.0577 C   0  0  0  0  0  0  0  0  0  0  0  0
  -21.6879    1.9444  -14.1498 C   0  0  0  0  0  0  0  0  0  0  0  0
  -22.9743    1.5537  -13.9014 C   0  0  0  0  0  0  0  0  0  0  0  0
  -22.9755    0.2089  -14.1389 N   0  0  0  0  0  0  0  0  0  0  0  0
  -24.1061   -0.6830  -14.0446 C   0  0  0  0  0  0  0  0  0  0  0  0
  -21.7790   -0.2935  -14.5079 N   0  0  0  0  0  0  0  0  0  0  0  0
  -20.9577    0.7702  -14.5356 C   0  0  0  0  0  0  0  0  0  0  0  0
  -19.5987    0.8494  -14.8816 C   0  0  0  0  0  0  0  0  0  0  0  0
  -15.2631   -0.6611  -12.6404 N   0  0  0  0  0  0  0  0  0  0  0  0
  -15.2097   -0.0387  -11.8466 H   0  0  0  0  0  0  0  0  0  0  0  0
  -15.7113   -1.9712  -12.3917 C   0  0  0  0  0  0  0  0  0  0  0  0
  -15.7849   -2.4502  -11.0761 C   0  0  0  0  0  0  0  0  0  0  0  0
  -16.1117   -3.7889  -10.8177 C   0  0  0  0  0  0  0  0  0  0  0  0
  -16.3896   -4.6581  -11.8712 C   0  0  0  0  0  0  0  0  0  0  0  0
  -16.3533   -4.1791  -13.1714 C   0  0  0  0  0  0  0  0  0  0  0  0
  -16.6267   -5.0047  -14.1909 F   0  0  0  0  0  0  0  0  0  0  0  0
  -16.0222   -2.8565  -13.4346 C   0  0  0  0  0  0  0  0  0  0  0  0
  7  8  1  0  0  0
  8  9  1  0  0  0
  8  1  1  0  0  0
  9 10  1  0  0  0
  9 18  2  0  0  0
 10 11  2  0  0  0
 11 12  1  0  0  0
 12 13  2  0  0  0
 12 17  1  0  0  0
 13 14  1  0  0  0
 14 15  1  0  0  0
 14 16  1  0  0  0
 16 17  2  0  0  0
 17 18  1  0  0  0
  1  2  1  0  0  0
  1  6  2  0  0  0
  2  3  2  0  0  0
  3  4  1  0  0  0
  4  5  2  0  0  0
  5 19  1  0  0  0
  5  6  1  0  0  0
 19 21  1  0  0  0
 19 20  1  0  0  0
 21 22  1  0  0  0
 21 27  2  0  0  0
 22 23  2  0  0  0
 23 24  1  0  0  0
 24 25  2  0  0  0
 25 26  1  0  0  0
 25 27  1  0  0  0
M  END
> <minimizedAffinity>
-9.11975

$$$$
