CHEMBL4209569


 26 29  0  0  0  0  0  0  0  0999 V2000
  -14.1894    0.6729  -14.6709 C   0  0  0  0  0  0  0  0  0  0  0  0
  -15.2125   -0.0914  -14.2434 N   0  0  0  0  0  0  0  0  0  0  0  0
  -16.4763    0.3429  -14.4091 C   0  0  0  0  0  0  0  0  0  0  0  0
  -16.7027    1.5769  -14.9968 C   0  0  0  0  0  0  0  0  0  0  0  0
  -17.8135    2.4081  -15.3076 C   0  0  0  0  0  0  0  0  0  0  0  0
  -17.4144    3.5193  -15.9554 N   0  0  0  0  0  0  0  0  0  0  0  0
  -16.0616    3.4134  -15.9974 N   0  0  0  0  0  0  0  0  0  0  0  0
  -15.5836    2.2644  -15.4230 C   0  0  0  0  0  0  0  0  0  0  0  0
  -14.3046    1.8664  -15.2797 N   0  0  0  0  0  0  0  0  0  0  0  0
  -19.2190    2.1423  -14.9934 C   0  0  0  0  0  0  0  0  0  0  0  0
  -20.0523    3.1759  -14.5392 C   0  0  0  0  0  0  0  0  0  0  0  0
  -21.3680    2.9214  -14.1409 C   0  0  0  0  0  0  0  0  0  0  0  0
  -21.8820    1.6300  -14.2183 C   0  0  0  0  0  0  0  0  0  0  0  0
  -21.0746    0.6051  -14.7196 C   0  0  0  0  0  0  0  0  0  0  0  0
  -19.7521    0.8558  -15.1054 C   0  0  0  0  0  0  0  0  0  0  0  0
  -23.1409    1.2496  -13.8439 O   0  0  0  0  0  0  0  0  0  0  0  0
  -23.4506   -0.1348  -13.9611 C   0  0  0  0  0  0  0  0  0  0  0  0
  -12.1450    0.9292  -13.4829 C   0  0  0  0  0  0  0  0  0  0  0  0
  -12.8927    0.2025  -14.4877 N   0  0  0  0  0  0  0  0  0  0  0  0
  -12.9696   -0.7971  -14.3446 H   0  0  0  0  0  0  0  0  0  0  0  0
  -15.2710    4.5147  -16.5051 C   0  0  0  0  0  0  0  0  0  0  0  0
  -15.1840    4.5411  -18.0254 C   0  0  0  0  0  0  0  0  0  0  0  0
  -14.4021    3.4541  -18.5449 O   0  0  0  0  0  0  0  0  0  0  0  0
  -13.2414    4.0529  -19.1165 C   0  0  0  0  0  0  0  0  0  0  0  0
  -13.6877    5.4416  -19.4798 C   0  0  0  0  0  0  0  0  0  0  0  0
  -14.5813    5.7893  -18.4253 O   0  0  0  0  0  0  0  0  0  0  0  0
 18 19  1  0  0  0
 19  1  1  0  0  0
 19 20  1  0  0  0
  1  2  1  0  0  0
  1  9  2  0  0  0
  2  3  2  0  0  0
  3  4  1  0  0  0
  4  5  1  0  0  0
  4  8  2  0  0  0
  5 10  1  0  0  0
  5  6  2  0  0  0
 10 11  1  0  0  0
 10 15  2  0  0  0
 11 12  2  0  0  0
 12 13  1  0  0  0
 13 16  1  0  0  0
 13 14  2  0  0  0
 16 17  1  0  0  0
 14 15  1  0  0  0
  6  7  1  0  0  0
  7 21  1  0  0  0
  7  8  1  0  0  0
 21 22  1  0  0  0
 22 23  1  0  0  0
 22 26  1  0  0  0
 23 24  1  0  0  0
 24 25  1  0  0  0
 25 26  1  0  0  0
  8  9  1  0  0  0
M  END
> <minimizedAffinity>
-7.39160

$$$$
