CHEMBL3099464


 42 44  0  0  0  0  0  0  0  0999 V2000
  -27.9135   -1.7049  -10.5306 N   0  0  0  0  0  0  0  0  0  0  0  0
  -27.8107   -2.5729   -9.4539 C   0  0  0  0  0  0  0  0  0  0  0  0
  -26.7735   -3.1254   -9.1034 O   0  0  0  0  0  0  0  0  0  0  0  0
  -29.0345   -2.7727   -8.8203 N   0  0  0  0  0  0  0  0  0  0  0  0
  -28.6082   -0.9813  -10.4326 H   0  0  0  0  0  0  0  0  0  0  0  0
  -29.8322   -2.7385   -9.4353 H   0  0  0  0  0  0  0  0  0  0  0  0
  -24.7805   -0.9981  -13.3244 C   0  0  0  0  0  0  0  0  0  0  0  0
  -24.6039   -0.7309  -11.9744 C   0  0  0  0  0  0  0  0  0  0  0  0
  -25.6358   -0.9866  -11.0699 C   0  0  0  0  0  0  0  0  0  0  0  0
  -26.8734   -1.5039  -11.4823 C   0  0  0  0  0  0  0  0  0  0  0  0
  -27.0385   -1.8305  -12.8419 C   0  0  0  0  0  0  0  0  0  0  0  0
  -28.2963   -2.4186  -13.4216 C   0  0  0  0  0  0  0  0  0  0  0  0
  -25.9971   -1.5317  -13.7502 C   0  0  0  0  0  0  0  0  0  0  0  0
  -23.8540   -0.7572  -14.3047 O   0  0  0  0  0  0  0  0  0  0  0  0
  -22.5498   -0.3833  -13.8380 C   0  0  0  0  0  0  0  0  0  0  0  0
  -22.3584    1.1295  -14.0348 C   0  0  0  0  0  0  0  0  0  0  0  0
  -20.9742    1.5574  -14.3391 N   0  0  0  0  0  0  0  0  0  0  0  0
  -18.8009    0.6003  -15.2021 C   0  0  0  0  0  0  0  0  0  0  0  0
  -20.3262    0.5466  -15.1951 C   0  0  0  0  0  0  0  0  0  0  0  0
  -20.8690    2.9312  -14.8551 C   0  0  0  0  0  0  0  0  0  0  0  0
  -19.5277    3.6285  -14.6524 C   0  0  0  0  0  0  0  0  0  0  0  0
  -29.1416   -3.6096   -7.6800 C   0  0  0  0  0  0  0  0  0  0  0  0
  -28.6836   -3.1947   -6.4267 C   0  0  0  0  0  0  0  0  0  0  0  0
  -28.6609   -4.0633   -5.3323 C   0  0  0  0  0  0  0  0  0  0  0  0
  -29.0851   -5.4011   -5.5039 C   0  0  0  0  0  0  0  0  0  0  0  0
  -29.6580   -5.8142   -6.7467 C   0  0  0  0  0  0  0  0  0  0  0  0
  -29.6897   -4.8836   -7.8098 C   0  0  0  0  0  0  0  0  0  0  0  0
  -30.2075   -7.1890   -6.9658 C   0  0  0  0  0  0  0  0  0  0  0  0
  -31.5525   -7.4959   -6.7570 C   0  0  0  0  0  0  0  0  0  0  0  0
  -32.0334   -8.7937   -6.9769 C   0  0  0  0  0  0  0  0  0  0  0  0
  -31.2071   -9.8429   -7.4473 C   0  0  0  0  0  0  0  0  0  0  0  0
  -29.8532   -9.5689   -7.6556 C   0  0  0  0  0  0  0  0  0  0  0  0
  -29.3935   -8.2542   -7.3873 C   0  0  0  0  0  0  0  0  0  0  0  0
  -31.9765  -11.1019   -7.6789 C   0  0  0  0  0  0  0  0  0  0  0  0
  -32.9100  -11.6662   -6.6524 C   0  0  0  0  0  0  0  0  0  0  0  0
  -31.9086  -11.6380   -8.7881 O   0  0  0  0  0  0  0  0  0  0  0  0
  -28.7965  -10.3009   -8.1003 O   0  0  0  0  0  0  0  0  0  0  0  0
  -28.5475  -10.6392   -9.4454 C   0  0  0  0  0  0  0  0  0  0  0  0
  -28.2138   -3.6728   -4.0971 O   0  0  0  0  0  0  0  0  0  0  0  0
  -29.0995   -2.9555   -3.2471 C   0  0  0  0  0  0  0  0  0  0  0  0
  -28.9558   -6.4070   -4.5727 O   0  0  0  0  0  0  0  0  0  0  0  0
  -29.9212   -6.5899   -3.5495 C   0  0  0  0  0  0  0  0  0  0  0  0
 18 19  1  0  0  0
 19 17  1  0  0  0
 17 20  1  0  0  0
 17 16  1  0  0  0
 20 21  1  0  0  0
 16 15  1  0  0  0
 15 14  1  0  0  0
 14  7  1  0  0  0
  7  8  1  0  0  0
  7 13  2  0  0  0
  8  9  2  0  0  0
  9 10  1  0  0  0
 10  1  1  0  0  0
 10 11  2  0  0  0
  1  2  1  0  0  0
  1  5  1  0  0  0
  2  3  2  0  0  0
  2  4  1  0  0  0
  4 22  1  0  0  0
  4  6  1  0  0  0
 22 23  1  0  0  0
 22 27  2  0  0  0
 23 24  2  0  0  0
 24 39  1  0  0  0
 24 25  1  0  0  0
 39 40  1  0  0  0
 25 41  1  0  0  0
 25 26  2  0  0  0
 41 42  1  0  0  0
 26 28  1  0  0  0
 26 27  1  0  0  0
 28 29  1  0  0  0
 28 33  2  0  0  0
 29 30  2  0  0  0
 30 31  1  0  0  0
 31 34  1  0  0  0
 31 32  2  0  0  0
 34 35  1  0  0  0
 34 36  2  0  0  0
 32 37  1  0  0  0
 32 33  1  0  0  0
 37 38  1  0  0  0
 11 12  1  0  0  0
 11 13  1  0  0  0
M  END
> <minimizedAffinity>
-9.28667

$$$$
