CHEMBL2011302


 27 29  0  0  0  0  0  0  0  0999 V2000
  -16.1426   -4.8568  -13.0498 N   0  0  0  0  0  0  0  0  0  0  0  0
  -14.9899   -4.9025  -12.3144 C   0  0  0  0  0  0  0  0  0  0  0  0
  -14.6545   -4.1392  -11.2078 C   0  0  0  0  0  0  0  0  0  0  0  0
  -13.4768   -4.7403  -10.6843 C   0  0  0  0  0  0  0  0  0  0  0  0
  -13.0254   -5.7000  -11.5044 N   0  0  0  0  0  0  0  0  0  0  0  0
  -13.9102   -5.7779  -12.5320 N   0  0  0  0  0  0  0  0  0  0  0  0
  -16.5317   -3.9290  -13.2525 H   0  0  0  0  0  0  0  0  0  0  0  0
  -16.1822   -5.3904  -13.9215 H   0  0  0  0  0  0  0  0  0  0  0  0
  -13.6497   -6.6466  -13.6430 C   0  0  0  0  0  0  0  0  0  0  0  0
  -13.5318   -8.0436  -13.4553 C   0  0  0  0  0  0  0  0  0  0  0  0
  -13.7766   -8.8664  -11.9483 Cl  0  0  0  0  0  0  0  0  0  0  0  0
  -13.2918   -8.8987  -14.5454 C   0  0  0  0  0  0  0  0  0  0  0  0
  -13.1845   -8.3868  -15.8295 C   0  0  0  0  0  0  0  0  0  0  0  0
  -12.9200   -9.4411  -17.1612 Cl  0  0  0  0  0  0  0  0  0  0  0  0
  -13.2751   -7.0200  -16.0383 C   0  0  0  0  0  0  0  0  0  0  0  0
  -13.4716   -6.1501  -14.9537 C   0  0  0  0  0  0  0  0  0  0  0  0
  -13.2980   -4.4734  -15.3622 Cl  0  0  0  0  0  0  0  0  0  0  0  0
  -12.8010   -4.4366   -9.4152 C   0  0  0  0  0  0  0  0  0  0  0  0
  -12.0093   -3.2902   -9.2800 C   0  0  0  0  0  0  0  0  0  0  0  0
  -11.2904   -3.1059   -8.1115 C   0  0  0  0  0  0  0  0  0  0  0  0
  -11.3485   -3.9457   -7.0602 N   0  0  0  0  0  0  0  0  0  0  0  0
  -12.1658   -5.0137   -7.1854 C   0  0  0  0  0  0  0  0  0  0  0  0
  -12.9084   -5.2962   -8.3222 C   0  0  0  0  0  0  0  0  0  0  0  0
  -15.3921   -3.0101  -10.6815 C   0  0  0  0  0  0  0  0  0  0  0  0
  -15.6119   -1.9794  -11.2990 O   0  0  0  0  0  0  0  0  0  0  0  0
  -15.8293   -3.1773   -9.4022 O   0  0  0  0  0  0  0  0  0  0  0  0
  -15.4867   -4.0209   -9.0353 H   0  0  0  0  0  0  0  0  0  0  0  0
  1  2  1  0  0  0
  1  7  1  0  0  0
  1  8  1  0  0  0
  2  3  2  0  0  0
  2  6  1  0  0  0
  3 24  1  0  0  0
  3  4  1  0  0  0
 24 25  2  0  0  0
 24 26  1  0  0  0
 26 27  1  0  0  0
  4 18  1  0  0  0
  4  5  2  0  0  0
 18 19  1  0  0  0
 18 23  2  0  0  0
 19 20  2  0  0  0
 20 21  1  0  0  0
 21 22  2  0  0  0
 22 23  1  0  0  0
  5  6  1  0  0  0
  6  9  1  0  0  0
  9 10  1  0  0  0
  9 16  2  0  0  0
 10 11  1  0  0  0
 10 12  2  0  0  0
 12 13  1  0  0  0
 13 14  1  0  0  0
 13 15  2  0  0  0
 15 16  1  0  0  0
 16 17  1  0  0  0
M  END
> <minimizedAffinity>
-6.84227

$$$$
