CHEMBL3287595


 42 46  0  0  0  0  0  0  0  0999 V2000
  -14.5561    0.0057  -15.0237 C   0  0  0  0  0  0  0  0  0  0  0  0
  -15.2405   -0.0306  -13.8071 C   0  0  0  0  0  0  0  0  0  0  0  0
  -16.4500    0.6499  -13.6591 C   0  0  0  0  0  0  0  0  0  0  0  0
  -17.0204    1.3354  -14.7333 C   0  0  0  0  0  0  0  0  0  0  0  0
  -16.3245    1.3907  -15.9463 C   0  0  0  0  0  0  0  0  0  0  0  0
  -15.1091    0.7168  -16.0858 C   0  0  0  0  0  0  0  0  0  0  0  0
  -14.4792    0.7511  -17.2701 F   0  0  0  0  0  0  0  0  0  0  0  0
  -18.2812    1.9618  -14.6507 N   0  0  0  0  0  0  0  0  0  0  0  0
  -19.5033    1.3844  -14.9569 C   0  0  0  0  0  0  0  0  0  0  0  0
  -19.7140    0.2554  -15.3767 O   0  0  0  0  0  0  0  0  0  0  0  0
  -18.2895    2.9630  -14.4731 H   0  0  0  0  0  0  0  0  0  0  0  0
  -20.6734    2.2984  -14.7538 C   0  0  0  0  0  0  0  0  0  0  0  0
  -20.9542    3.2811  -15.8963 C   0  0  0  0  0  0  0  0  0  0  0  0
  -20.4170    3.7963  -14.6000 C   0  0  0  0  0  0  0  0  0  0  0  0
  -21.8550    1.6782  -14.0763 C   0  0  0  0  0  0  0  0  0  0  0  0
  -22.6572    2.4401  -13.5524 O   0  0  0  0  0  0  0  0  0  0  0  0
  -21.9055    0.2932  -14.1079 N   0  0  0  0  0  0  0  0  0  0  0  0
  -21.1138   -0.1910  -14.5166 H   0  0  0  0  0  0  0  0  0  0  0  0
  -22.9018   -0.5045  -13.5015 C   0  0  0  0  0  0  0  0  0  0  0  0
  -24.0782   -0.8752  -14.1627 C   0  0  0  0  0  0  0  0  0  0  0  0
  -25.0842   -1.5780  -13.4961 C   0  0  0  0  0  0  0  0  0  0  0  0
  -24.9078   -1.9256  -12.1662 C   0  0  0  0  0  0  0  0  0  0  0  0
  -25.8892   -2.5631  -11.5151 F   0  0  0  0  0  0  0  0  0  0  0  0
  -23.7259   -1.6177  -11.5033 C   0  0  0  0  0  0  0  0  0  0  0  0
  -22.7136   -0.9199  -12.1751 C   0  0  0  0  0  0  0  0  0  0  0  0
  -13.3858   -0.6819  -15.2481 O   0  0  0  0  0  0  0  0  0  0  0  0
  -12.5234   -2.6562  -12.4198 C   0  0  0  0  0  0  0  0  0  0  0  0
  -11.3732   -2.0878  -12.0154 N   0  0  0  0  0  0  0  0  0  0  0  0
  -10.9254   -1.0146  -12.6801 C   0  0  0  0  0  0  0  0  0  0  0  0
  -11.5715   -0.4842  -13.7598 C   0  0  0  0  0  0  0  0  0  0  0  0
  -12.7114   -1.1542  -14.1301 C   0  0  0  0  0  0  0  0  0  0  0  0
  -13.2116   -2.2194  -13.4765 N   0  0  0  0  0  0  0  0  0  0  0  0
  -13.0551   -3.7632  -11.7659 N   0  0  0  0  0  0  0  0  0  0  0  0
  -12.3103   -4.3494  -11.4157 H   0  0  0  0  0  0  0  0  0  0  0  0
  -15.5805   -6.3218  -12.6936 C   0  0  0  0  0  0  0  0  0  0  0  0
  -16.7428   -5.7527  -12.1741 C   0  0  0  0  0  0  0  0  0  0  0  0
  -16.6967   -4.5146  -11.5478 C   0  0  0  0  0  0  0  0  0  0  0  0
  -15.4836   -3.8442  -11.4345 C   0  0  0  0  0  0  0  0  0  0  0  0
  -14.2981   -4.3855  -11.9453 C   0  0  0  0  0  0  0  0  0  0  0  0
  -14.3642   -5.6376  -12.5737 C   0  0  0  0  0  0  0  0  0  0  0  0
  -14.2606   -7.8491  -13.9347 C   0  0  0  0  0  0  0  0  0  0  0  0
  -15.5086   -7.5354  -13.3253 O   0  0  0  0  0  0  0  0  0  0  0  0
 41 42  1  0  0  0
 42 35  1  0  0  0
 35 36  1  0  0  0
 35 40  2  0  0  0
 36 37  2  0  0  0
 37 38  1  0  0  0
 38 39  2  0  0  0
 39 33  1  0  0  0
 39 40  1  0  0  0
 33 27  1  0  0  0
 33 34  1  0  0  0
 27 28  1  0  0  0
 27 32  2  0  0  0
 28 29  2  0  0  0
 29 30  1  0  0  0
 30 31  2  0  0  0
 31 26  1  0  0  0
 31 32  1  0  0  0
 26  1  1  0  0  0
  1  2  1  0  0  0
  1  6  2  0  0  0
  2  3  2  0  0  0
  3  4  1  0  0  0
  4  8  1  0  0  0
  4  5  2  0  0  0
  8  9  1  0  0  0
  8 11  1  0  0  0
  9 10  2  0  0  0
  9 12  1  0  0  0
 12 15  1  0  0  0
 12 13  1  0  0  0
 12 14  1  0  0  0
 15 16  2  0  0  0
 15 17  1  0  0  0
 17 19  1  0  0  0
 17 18  1  0  0  0
 19 20  1  0  0  0
 19 25  2  0  0  0
 20 21  2  0  0  0
 21 22  1  0  0  0
 22 23  1  0  0  0
 22 24  2  0  0  0
 24 25  1  0  0  0
 13 14  1  0  0  0
  5  6  1  0  0  0
  6  7  1  0  0  0
M  END
> <minimizedAffinity>
-10.08586

$$$$
