CHEMBL475351


 31 35  0  0  0  0  0  0  0  0999 V2000
  -12.8090   -7.2728  -11.9107 C   0  0  0  0  0  0  0  0  0  0  0  0
  -13.8722   -8.0803  -12.3052 C   0  0  0  0  0  0  0  0  0  0  0  0
  -13.9293   -8.6147  -13.6163 C   0  0  0  0  0  0  0  0  0  0  0  0
  -12.9434   -8.3447  -14.5969 C   0  0  0  0  0  0  0  0  0  0  0  0
  -11.8912   -7.4880  -14.1966 C   0  0  0  0  0  0  0  0  0  0  0  0
  -11.8258   -7.0225  -12.8704 C   0  0  0  0  0  0  0  0  0  0  0  0
  -13.0801   -9.0000  -15.9451 C   0  0  0  0  0  0  0  0  0  0  0  0
  -12.8185  -10.2774  -16.1962 N   0  0  0  0  0  0  0  0  0  0  0  0
  -12.9775  -10.5721  -17.5584 C   0  0  0  0  0  0  0  0  0  0  0  0
  -12.7663  -11.8157  -18.2004 C   0  0  0  0  0  0  0  0  0  0  0  0
  -12.9448  -11.9353  -19.5899 C   0  0  0  0  0  0  0  0  0  0  0  0
  -13.3383  -10.8383  -20.3477 C   0  0  0  0  0  0  0  0  0  0  0  0
  -13.5686   -9.6047  -19.7364 C   0  0  0  0  0  0  0  0  0  0  0  0
  -13.3803   -9.4964  -18.3453 C   0  0  0  0  0  0  0  0  0  0  0  0
  -13.5803   -8.1240  -17.3478 S   0  0  0  0  0  0  0  0  0  0  0  0
  -12.6591   -6.8082  -10.5850 N   0  0  0  0  0  0  0  0  0  0  0  0
  -12.3298   -7.4738   -9.9020 H   0  0  0  0  0  0  0  0  0  0  0  0
  -14.7877   -3.9583   -9.9334 C   0  0  0  0  0  0  0  0  0  0  0  0
  -14.3264   -5.1337  -10.3925 N   0  0  0  0  0  0  0  0  0  0  0  0
  -13.0765   -5.5620  -10.0749 C   0  0  0  0  0  0  0  0  0  0  0  0
  -12.3040   -4.7218   -9.2526 C   0  0  0  0  0  0  0  0  0  0  0  0
  -11.0304   -4.7466   -8.6148 C   0  0  0  0  0  0  0  0  0  0  0  0
  -10.8999   -3.5925   -7.8673 C   0  0  0  0  0  0  0  0  0  0  0  0
  -12.0454   -2.8544   -8.0300 N   0  0  0  0  0  0  0  0  0  0  0  0
  -12.9119   -3.5369   -8.8419 C   0  0  0  0  0  0  0  0  0  0  0  0
  -14.1356   -3.0964   -9.1487 N   0  0  0  0  0  0  0  0  0  0  0  0
  -12.2614   -1.9643   -7.5979 H   0  0  0  0  0  0  0  0  0  0  0  0
  -16.4580   -4.0574  -11.5522 C   0  0  0  0  0  0  0  0  0  0  0  0
  -16.0715   -3.5828  -10.2693 O   0  0  0  0  0  0  0  0  0  0  0  0
  -10.8617   -7.1918  -15.0550 O   0  0  0  0  0  0  0  0  0  0  0  0
  -10.8518   -5.8912  -15.6473 C   0  0  0  0  0  0  0  0  0  0  0  0
 28 29  1  0  0  0
 29 18  1  0  0  0
 18 19  1  0  0  0
 18 26  2  0  0  0
 19 20  2  0  0  0
 20 16  1  0  0  0
 20 21  1  0  0  0
 16  1  1  0  0  0
 16 17  1  0  0  0
  1  2  1  0  0  0
  1  6  2  0  0  0
  2  3  2  0  0  0
  3  4  1  0  0  0
  4  7  1  0  0  0
  4  5  2  0  0  0
  7  8  2  0  0  0
  7 15  1  0  0  0
  8  9  1  0  0  0
  9 10  1  0  0  0
  9 14  2  0  0  0
 10 11  2  0  0  0
 11 12  1  0  0  0
 12 13  2  0  0  0
 13 14  1  0  0  0
 14 15  1  0  0  0
  5 30  1  0  0  0
  5  6  1  0  0  0
 30 31  1  0  0  0
 21 22  1  0  0  0
 21 25  2  0  0  0
 22 23  2  0  0  0
 23 24  1  0  0  0
 24 25  1  0  0  0
 24 27  1  0  0  0
 25 26  1  0  0  0
M  END
> <minimizedAffinity>
-7.61301

$$$$
