CHEMBL3950496


 43 47  0  0  0  0  0  0  0  0999 V2000
  -27.9328   -2.8324   -8.4211 N   0  0  0  0  0  0  0  0  0  0  0  0
  -27.4623   -2.1538   -9.6008 C   0  0  0  0  0  0  0  0  0  0  0  0
  -28.2840   -2.2945  -10.7247 C   0  0  0  0  0  0  0  0  0  0  0  0
  -27.7889   -2.0889  -11.9999 C   0  0  0  0  0  0  0  0  0  0  0  0
  -26.5168   -1.6287  -12.2177 C   0  0  0  0  0  0  0  0  0  0  0  0
  -26.1750   -1.6147  -13.5101 N   0  0  0  0  0  0  0  0  0  0  0  0
  -24.9966   -1.0658  -13.8216 C   0  0  0  0  0  0  0  0  0  0  0  0
  -24.1941   -0.4672  -12.8755 C   0  0  0  0  0  0  0  0  0  0  0  0
  -24.5030   -0.5349  -11.5293 N   0  0  0  0  0  0  0  0  0  0  0  0
  -25.6945   -1.1889  -11.1520 C   0  0  0  0  0  0  0  0  0  0  0  0
  -26.2032   -1.5087   -9.8183 C   0  0  0  0  0  0  0  0  0  0  0  0
  -23.0490    0.2666  -13.4074 C   0  0  0  0  0  0  0  0  0  0  0  0
  -22.8596    1.6636  -13.5873 C   0  0  0  0  0  0  0  0  0  0  0  0
  -21.7825    1.9545  -14.3307 N   0  0  0  0  0  0  0  0  0  0  0  0
  -21.2860    0.7452  -14.6402 N   0  0  0  0  0  0  0  0  0  0  0  0
  -19.9362    0.6061  -15.1354 C   0  0  0  0  0  0  0  0  0  0  0  0
  -22.1189   -0.2787  -14.2803 C   0  0  0  0  0  0  0  0  0  0  0  0
  -29.7334   -6.0168   -7.5084 C   0  0  0  0  0  0  0  0  0  0  0  0
  -28.8908   -6.9689   -8.0844 C   0  0  0  0  0  0  0  0  0  0  0  0
  -27.7144   -6.5753   -8.7138 C   0  0  0  0  0  0  0  0  0  0  0  0
  -27.3758   -5.2160   -8.7618 C   0  0  0  0  0  0  0  0  0  0  0  0
  -28.1827   -4.2153   -8.1985 C   0  0  0  0  0  0  0  0  0  0  0  0
  -29.3576   -4.6494   -7.5460 C   0  0  0  0  0  0  0  0  0  0  0  0
  -31.4976   -7.5979   -7.1714 C   0  0  0  0  0  0  0  0  0  0  0  0
  -30.9398   -6.3024   -6.9321 O   0  0  0  0  0  0  0  0  0  0  0  0
  -26.8266   -7.4025   -9.3511 O   0  0  0  0  0  0  0  0  0  0  0  0
  -27.1967   -8.7690   -9.4872 C   0  0  0  0  0  0  0  0  0  0  0  0
  -28.7988   -1.8767   -7.5939 C   0  0  0  0  0  0  0  0  0  0  0  0
  -28.3080   -1.5364   -6.1345 C   0  0  0  0  0  0  0  0  0  0  0  0
  -29.3450   -1.2220   -5.0706 N   0  0  0  0  0  0  0  0  0  0  0  0
  -29.4209    0.2636   -4.7955 C   0  0  0  0  0  0  0  0  0  0  0  0
  -28.0704    0.9938   -4.9282 C   0  0  0  0  0  0  0  0  0  0  0  0
  -30.4017    1.0556   -5.7095 C   0  0  0  0  0  0  0  0  0  0  0  0
  -29.0525   -1.9021   -3.7897 C   0  0  0  0  0  0  0  0  0  0  0  0
  -29.2626   -3.3971   -3.6984 C   0  0  0  0  0  0  0  0  0  0  0  0
  -30.5750   -3.8849   -3.6218 C   0  0  0  0  0  0  0  0  0  0  0  0
  -30.8287   -5.2544   -3.6940 C   0  0  0  0  0  0  0  0  0  0  0  0
  -29.7783   -6.1661   -3.8138 C   0  0  0  0  0  0  0  0  0  0  0  0
  -30.0518   -7.5079   -4.1020 N   0  0  0  0  0  0  0  0  0  0  0  0
  -28.4726   -5.6796   -3.9052 C   0  0  0  0  0  0  0  0  0  0  0  0
  -28.2116   -4.3086   -3.8429 C   0  0  0  0  0  0  0  0  0  0  0  0
  -30.9347   -7.8414   -3.7309 H   0  0  0  0  0  0  0  0  0  0  0  0
  -29.2802   -8.1393   -3.9158 H   0  0  0  0  0  0  0  0  0  0  0  0
 24 25  1  0  0  0
 25 18  1  0  0  0
 18 19  1  0  0  0
 18 23  2  0  0  0
 19 20  2  0  0  0
 20 26  1  0  0  0
 20 21  1  0  0  0
 26 27  1  0  0  0
 21 22  2  0  0  0
 22  1  1  0  0  0
 22 23  1  0  0  0
  1 28  1  0  0  0
  1  2  1  0  0  0
 28 29  1  0  0  0
 29 30  1  0  0  0
 30 34  1  0  0  0
 30 31  1  0  0  0
 34 35  1  0  0  0
 35 36  1  0  0  0
 35 41  2  0  0  0
 36 37  2  0  0  0
 37 38  1  0  0  0
 38 39  1  0  0  0
 38 40  2  0  0  0
 39 42  1  0  0  0
 39 43  1  0  0  0
 40 41  1  0  0  0
 31 32  1  0  0  0
 31 33  1  0  0  0
  2  3  1  0  0  0
  2 11  2  0  0  0
  3  4  2  0  0  0
  4  5  1  0  0  0
  5  6  1  0  0  0
  5 10  2  0  0  0
  6  7  2  0  0  0
  7  8  1  0  0  0
  8 12  1  0  0  0
  8  9  2  0  0  0
 12 13  1  0  0  0
 12 17  2  0  0  0
 13 14  2  0  0  0
 14 15  1  0  0  0
 15 16  1  0  0  0
 15 17  1  0  0  0
  9 10  1  0  0  0
 10 11  1  0  0  0
M  END
> <minimizedAffinity>
-8.03509

$$$$
