CHEMBL1940274


 34 37  0  0  0  0  0  0  0  0999 V2000
  -29.1546   -5.7138   -6.2606 C   0  0  0  0  0  0  0  0  0  0  0  0
  -29.4329   -4.5048   -5.6149 C   0  0  0  0  0  0  0  0  0  0  0  0
  -29.2525   -3.2955   -6.2826 C   0  0  0  0  0  0  0  0  0  0  0  0
  -28.7340   -3.2744   -7.5824 C   0  0  0  0  0  0  0  0  0  0  0  0
  -28.3569   -4.4819   -8.1832 C   0  0  0  0  0  0  0  0  0  0  0  0
  -28.5576   -5.7021   -7.5207 C   0  0  0  0  0  0  0  0  0  0  0  0
  -29.4489   -6.9341   -5.6876 O   0  0  0  0  0  0  0  0  0  0  0  0
  -28.9979  -11.3486   -8.1615 C   0  0  0  0  0  0  0  0  0  0  0  0
  -30.3477  -10.9619   -8.1104 C   0  0  0  0  0  0  0  0  0  0  0  0
  -30.7591   -9.7713   -7.5416 C   0  0  0  0  0  0  0  0  0  0  0  0
  -32.0480   -9.4315   -7.6575 N   0  0  0  0  0  0  0  0  0  0  0  0
  -32.4027   -8.2352   -7.1802 C   0  0  0  0  0  0  0  0  0  0  0  0
  -31.5996   -7.3764   -6.5609 N   0  0  0  0  0  0  0  0  0  0  0  0
  -30.3188   -7.7758   -6.3908 C   0  0  0  0  0  0  0  0  0  0  0  0
  -29.8082   -8.9766   -6.9028 C   0  0  0  0  0  0  0  0  0  0  0  0
  -28.4646   -9.4060   -6.8380 C   0  0  0  0  0  0  0  0  0  0  0  0
  -28.0464  -10.5786   -7.4813 C   0  0  0  0  0  0  0  0  0  0  0  0
  -28.1599  -12.2323  -10.1967 C   0  0  0  0  0  0  0  0  0  0  0  0
  -28.6133  -12.4646   -8.8584 O   0  0  0  0  0  0  0  0  0  0  0  0
  -26.6993  -10.7754   -7.3572 O   0  0  0  0  0  0  0  0  0  0  0  0
  -26.0083  -10.2349   -6.2424 C   0  0  0  0  0  0  0  0  0  0  0  0
  -28.7284   -1.9730   -8.3481 C   0  0  0  0  0  0  0  0  0  0  0  0
  -27.6422   -1.8078   -9.3856 C   0  0  0  0  0  0  0  0  0  0  0  0
  -26.4593   -1.8718   -9.0532 O   0  0  0  0  0  0  0  0  0  0  0  0
  -28.0994   -1.6622  -10.6827 N   0  0  0  0  0  0  0  0  0  0  0  0
  -29.0824   -1.4850  -10.8467 H   0  0  0  0  0  0  0  0  0  0  0  0
  -27.2422   -1.5748  -11.7645 C   0  0  0  0  0  0  0  0  0  0  0  0
  -27.4293   -1.9442  -13.1149 C   0  0  0  0  0  0  0  0  0  0  0  0
  -26.3372   -1.7446  -13.8544 N   0  0  0  0  0  0  0  0  0  0  0  0
  -25.4341   -1.2863  -12.9678 N   0  0  0  0  0  0  0  0  0  0  0  0
  -25.9550   -1.0896  -11.7161 C   0  0  0  0  0  0  0  0  0  0  0  0
  -24.0408   -1.1373  -13.3773 C   0  0  0  0  0  0  0  0  0  0  0  0
  -23.5604    0.2995  -13.1562 C   0  0  0  0  0  0  0  0  0  0  0  0
  -23.1363   -2.1385  -12.6613 C   0  0  0  0  0  0  0  0  0  0  0  0
 18 19  1  0  0  0
 19  8  1  0  0  0
  8  9  1  0  0  0
  8 17  2  0  0  0
  9 10  2  0  0  0
 10 11  1  0  0  0
 10 15  1  0  0  0
 11 12  2  0  0  0
 12 13  1  0  0  0
 13 14  2  0  0  0
 14  7  1  0  0  0
 14 15  1  0  0  0
  7  1  1  0  0  0
  1  2  1  0  0  0
  1  6  2  0  0  0
  2  3  2  0  0  0
  3  4  1  0  0  0
  4 22  1  0  0  0
  4  5  2  0  0  0
 22 23  1  0  0  0
 23 24  2  0  0  0
 23 25  1  0  0  0
 25 27  1  0  0  0
 25 26  1  0  0  0
 27 28  1  0  0  0
 27 31  2  0  0  0
 28 29  2  0  0  0
 29 30  1  0  0  0
 30 32  1  0  0  0
 30 31  1  0  0  0
 32 33  1  0  0  0
 32 34  1  0  0  0
  5  6  1  0  0  0
 15 16  2  0  0  0
 16 17  1  0  0  0
 17 20  1  0  0  0
 20 21  1  0  0  0
M  END
> <minimizedAffinity>
-8.27868

$$$$
