CHEMBL3963816


 31 35  0  0  0  0  0  0  0  0999 V2000
  -28.7407   -8.3411   -6.0374 C   0  0  0  0  0  0  0  0  0  0  0  0
  -29.0792   -8.4194   -4.6816 C   0  0  0  0  0  0  0  0  0  0  0  0
  -29.4538   -7.2832   -4.0014 C   0  0  0  0  0  0  0  0  0  0  0  0
  -29.3974   -6.0454   -4.5848 C   0  0  0  0  0  0  0  0  0  0  0  0
  -29.9490   -5.0621   -3.8614 N   0  0  0  0  0  0  0  0  0  0  0  0
  -29.7988   -3.8081   -4.3212 C   0  0  0  0  0  0  0  0  0  0  0  0
  -29.0450   -3.5195   -5.4250 C   0  0  0  0  0  0  0  0  0  0  0  0
  -28.5319   -4.5206   -6.2213 N   0  0  0  0  0  0  0  0  0  0  0  0
  -28.7667   -5.8358   -5.8357 C   0  0  0  0  0  0  0  0  0  0  0  0
  -28.4972   -7.0411   -6.5741 C   0  0  0  0  0  0  0  0  0  0  0  0
  -28.6422   -2.1217   -5.5905 C   0  0  0  0  0  0  0  0  0  0  0  0
  -27.4620   -1.4691   -5.1454 C   0  0  0  0  0  0  0  0  0  0  0  0
  -27.5342   -0.1377   -5.2489 N   0  0  0  0  0  0  0  0  0  0  0  0
  -28.7603    0.0710   -5.7571 N   0  0  0  0  0  0  0  0  0  0  0  0
  -29.1301    1.3770   -6.2531 C   0  0  0  0  0  0  0  0  0  0  0  0
  -29.5109   -1.0706   -5.8275 C   0  0  0  0  0  0  0  0  0  0  0  0
  -28.9441   -9.5649   -6.7895 N   0  0  0  0  0  0  0  0  0  0  0  0
  -26.4790  -10.9958   -9.2600 C   0  0  0  0  0  0  0  0  0  0  0  0
  -27.1914  -10.9209  -10.4474 C   0  0  0  0  0  0  0  0  0  0  0  0
  -28.4390  -10.2886  -10.4562 C   0  0  0  0  0  0  0  0  0  0  0  0
  -29.0040   -9.8109   -9.2566 C   0  0  0  0  0  0  0  0  0  0  0  0
  -28.3461   -9.9491   -8.0280 C   0  0  0  0  0  0  0  0  0  0  0  0
  -27.0330  -10.4582   -8.0937 C   0  0  0  0  0  0  0  0  0  0  0  0
  -24.6480  -11.4631   -7.7992 C   0  0  0  0  0  0  0  0  0  0  0  0
  -25.2432  -11.5544   -9.0869 O   0  0  0  0  0  0  0  0  0  0  0  0
  -29.2184  -10.1138  -11.5717 O   0  0  0  0  0  0  0  0  0  0  0  0
  -28.5341   -9.9684  -12.8107 C   0  0  0  0  0  0  0  0  0  0  0  0
  -30.4141   -9.8799   -6.6921 C   0  0  0  0  0  0  0  0  0  0  0  0
  -31.4145   -9.0623   -7.4898 C   0  0  0  0  0  0  0  0  0  0  0  0
  -32.1571   -7.9018   -6.8616 C   0  0  0  0  0  0  0  0  0  0  0  0
  -32.9250   -9.0647   -7.4166 C   0  0  0  0  0  0  0  0  0  0  0  0
 24 25  1  0  0  0
 25 18  1  0  0  0
 18 19  1  0  0  0
 18 23  2  0  0  0
 19 20  2  0  0  0
 20 26  1  0  0  0
 20 21  1  0  0  0
 26 27  1  0  0  0
 21 22  2  0  0  0
 22 17  1  0  0  0
 22 23  1  0  0  0
 17 28  1  0  0  0
 17  1  1  0  0  0
 28 29  1  0  0  0
 29 30  1  0  0  0
 29 31  1  0  0  0
 30 31  1  0  0  0
  1  2  1  0  0  0
  1 10  2  0  0  0
  2  3  2  0  0  0
  3  4  1  0  0  0
  4  5  1  0  0  0
  4  9  2  0  0  0
  5  6  2  0  0  0
  6  7  1  0  0  0
  7 11  1  0  0  0
  7  8  2  0  0  0
 11 12  1  0  0  0
 11 16  2  0  0  0
 12 13  2  0  0  0
 13 14  1  0  0  0
 14 15  1  0  0  0
 14 16  1  0  0  0
  8  9  1  0  0  0
  9 10  1  0  0  0
M  END
> <minimizedAffinity>
-7.86435

$$$$
