CHEMBL3937703


 38 41  0  0  0  0  0  0  0  0999 V2000
  -28.8800   -3.4650   -6.5067 C   0  0  0  0  0  0  0  0  0  0  0  0
  -28.2618   -3.7019   -5.2713 C   0  0  0  0  0  0  0  0  0  0  0  0
  -28.5879   -4.8365   -4.5222 C   0  0  0  0  0  0  0  0  0  0  0  0
  -29.5267   -5.7487   -5.0074 C   0  0  0  0  0  0  0  0  0  0  0  0
  -30.1411   -5.4896   -6.2376 C   0  0  0  0  0  0  0  0  0  0  0  0
  -30.9831   -6.3817   -6.7886 F   0  0  0  0  0  0  0  0  0  0  0  0
  -29.8647   -4.3345   -6.9651 C   0  0  0  0  0  0  0  0  0  0  0  0
  -27.5617   -1.6363   -9.3392 N   0  0  0  0  0  0  0  0  0  0  0  0
  -27.8156   -2.7459   -8.5524 C   0  0  0  0  0  0  0  0  0  0  0  0
  -27.5761   -3.9038   -8.8753 O   0  0  0  0  0  0  0  0  0  0  0  0
  -28.4516   -2.4152   -7.3586 N   0  0  0  0  0  0  0  0  0  0  0  0
  -27.8137   -0.7329   -8.9617 H   0  0  0  0  0  0  0  0  0  0  0  0
  -29.0780   -1.6267   -7.4337 H   0  0  0  0  0  0  0  0  0  0  0  0
  -24.9655   -1.5814  -12.0116 C   0  0  0  0  0  0  0  0  0  0  0  0
  -25.7547   -1.6820  -13.1642 C   0  0  0  0  0  0  0  0  0  0  0  0
  -27.1318   -1.7777  -13.0469 C   0  0  0  0  0  0  0  0  0  0  0  0
  -27.8806   -1.8894  -14.1523 F   0  0  0  0  0  0  0  0  0  0  0  0
  -27.7491   -1.7704  -11.8032 C   0  0  0  0  0  0  0  0  0  0  0  0
  -26.9911   -1.6604  -10.6349 C   0  0  0  0  0  0  0  0  0  0  0  0
  -25.5957   -1.5701  -10.7488 C   0  0  0  0  0  0  0  0  0  0  0  0
  -22.9852   -0.0894  -12.4372 C   0  0  0  0  0  0  0  0  0  0  0  0
  -23.4601   -1.5012  -12.1326 C   0  0  0  0  0  0  0  0  0  0  0  0
  -22.9828   -2.3184  -13.1169 F   0  0  0  0  0  0  0  0  0  0  0  0
  -22.8348   -1.9116  -10.9904 F   0  0  0  0  0  0  0  0  0  0  0  0
  -29.6942   -6.8912   -4.2528 O   0  0  0  0  0  0  0  0  0  0  0  0
  -28.8328   -7.9547   -4.4110 C   0  0  0  0  0  0  0  0  0  0  0  0
  -28.3635   -8.7246   -3.3539 C   0  0  0  0  0  0  0  0  0  0  0  0
  -27.5217   -9.7713   -3.6533 C   0  0  0  0  0  0  0  0  0  0  0  0
  -27.0882  -10.0435   -4.8971 N   0  0  0  0  0  0  0  0  0  0  0  0
  -27.4935   -9.2629   -5.9110 C   0  0  0  0  0  0  0  0  0  0  0  0
  -28.3687   -8.2018   -5.7069 C   0  0  0  0  0  0  0  0  0  0  0  0
  -27.0069   -9.5017   -7.2070 N   0  0  0  0  0  0  0  0  0  0  0  0
  -27.6581  -10.2767   -8.1415 C   0  0  0  0  0  0  0  0  0  0  0  0
  -28.7490  -10.8220   -8.0416 O   0  0  0  0  0  0  0  0  0  0  0  0
  -26.1174   -9.0990   -7.4536 H   0  0  0  0  0  0  0  0  0  0  0  0
  -26.8821  -10.4643   -9.4097 C   0  0  0  0  0  0  0  0  0  0  0  0
  -27.0443   -9.4892  -10.5576 C   0  0  0  0  0  0  0  0  0  0  0  0
  -27.6289  -10.8664  -10.6628 C   0  0  0  0  0  0  0  0  0  0  0  0
 21 22  1  0  0  0
 22 23  1  0  0  0
 22 24  1  0  0  0
 22 14  1  0  0  0
 14 15  1  0  0  0
 14 20  2  0  0  0
 15 16  2  0  0  0
 16 17  1  0  0  0
 16 18  1  0  0  0
 18 19  2  0  0  0
 19  8  1  0  0  0
 19 20  1  0  0  0
  8  9  1  0  0  0
  8 12  1  0  0  0
  9 10  2  0  0  0
  9 11  1  0  0  0
 11  1  1  0  0  0
 11 13  1  0  0  0
  1  2  1  0  0  0
  1  7  2  0  0  0
  2  3  2  0  0  0
  3  4  1  0  0  0
  4 25  1  0  0  0
  4  5  2  0  0  0
 25 26  1  0  0  0
 26 27  1  0  0  0
 26 31  2  0  0  0
 27 28  2  0  0  0
 28 29  1  0  0  0
 29 30  2  0  0  0
 30 32  1  0  0  0
 30 31  1  0  0  0
 32 33  1  0  0  0
 32 35  1  0  0  0
 33 34  2  0  0  0
 33 36  1  0  0  0
 36 37  1  0  0  0
 36 38  1  0  0  0
 37 38  1  0  0  0
  5  6  1  0  0  0
  5  7  1  0  0  0
M  END
> <minimizedAffinity>
-10.35623

$$$$
