CHEMBL3741526


 38 42  0  0  0  0  0  0  0  0999 V2000
  -29.4169   -3.7512   -6.5899 C   0  0  0  0  0  0  0  0  0  0  0  0
  -30.6298   -3.6918   -6.7426 O   0  0  0  0  0  0  0  0  0  0  0  0
  -28.7644   -4.6534   -5.6147 C   0  0  0  0  0  0  0  0  0  0  0  0
  -28.0656   -4.2970   -4.4580 C   0  0  0  0  0  0  0  0  0  0  0  0
  -27.7659   -2.9959   -3.7910 C   0  0  0  0  0  0  0  0  0  0  0  0
  -27.6060   -5.4550   -3.8757 N   0  0  0  0  0  0  0  0  0  0  0  0
  -28.0005   -6.5673   -4.5803 C   0  0  0  0  0  0  0  0  0  0  0  0
  -28.7469   -6.1038   -5.6699 C   0  0  0  0  0  0  0  0  0  0  0  0
  -27.0590   -5.4916   -3.0260 H   0  0  0  0  0  0  0  0  0  0  0  0
  -27.5994   -7.9273   -4.1745 C   0  0  0  0  0  0  0  0  0  0  0  0
  -28.5662   -8.8627   -3.7768 C   0  0  0  0  0  0  0  0  0  0  0  0
  -28.2558  -10.2201   -3.6800 C   0  0  0  0  0  0  0  0  0  0  0  0
  -26.9502  -10.6497   -3.8917 C   0  0  0  0  0  0  0  0  0  0  0  0
  -25.9519   -9.7180   -4.1687 C   0  0  0  0  0  0  0  0  0  0  0  0
  -26.2734   -8.3633   -4.3152 C   0  0  0  0  0  0  0  0  0  0  0  0
  -29.3235   -6.9896   -6.7007 C   0  0  0  0  0  0  0  0  0  0  0  0
  -28.5491   -7.4172   -7.7847 C   0  0  0  0  0  0  0  0  0  0  0  0
  -29.0514   -8.3168   -8.7282 C   0  0  0  0  0  0  0  0  0  0  0  0
  -30.3856   -8.6997   -8.6772 C   0  0  0  0  0  0  0  0  0  0  0  0
  -31.2000   -8.2177   -7.6572 C   0  0  0  0  0  0  0  0  0  0  0  0
  -30.6585   -7.4140   -6.6474 C   0  0  0  0  0  0  0  0  0  0  0  0
  -28.1202   -1.6164   -7.1744 C   0  0  0  0  0  0  0  0  0  0  0  0
  -27.4688   -1.1102   -8.2394 N   0  0  0  0  0  0  0  0  0  0  0  0
  -27.5560   -2.0651   -9.1967 N   0  0  0  0  0  0  0  0  0  0  0  0
  -28.2852   -3.1444   -8.7726 C   0  0  0  0  0  0  0  0  0  0  0  0
  -28.5970   -2.9199   -7.4531 C   0  0  0  0  0  0  0  0  0  0  0  0
  -26.9278   -1.9063  -10.4602 C   0  0  0  0  0  0  0  0  0  0  0  0
  -27.6829   -2.0587  -11.6322 C   0  0  0  0  0  0  0  0  0  0  0  0
  -27.0788   -1.8778  -12.8788 C   0  0  0  0  0  0  0  0  0  0  0  0
  -25.7250   -1.5570  -12.9554 C   0  0  0  0  0  0  0  0  0  0  0  0
  -24.9799   -1.3373  -14.4887 Cl  0  0  0  0  0  0  0  0  0  0  0  0
  -24.9659   -1.4114  -11.7959 C   0  0  0  0  0  0  0  0  0  0  0  0
  -25.5645   -1.5842  -10.5475 C   0  0  0  0  0  0  0  0  0  0  0  0
  -28.3120   -0.8797   -5.9164 C   0  0  0  0  0  0  0  0  0  0  0  0
  -27.3897   -0.5655   -5.1723 O   0  0  0  0  0  0  0  0  0  0  0  0
  -29.6343   -0.6819   -5.6323 O   0  0  0  0  0  0  0  0  0  0  0  0
  -29.8747    1.4931   -6.5789 C   0  0  0  0  0  0  0  0  0  0  0  0
  -29.9987    0.6668   -5.3098 C   0  0  0  0  0  0  0  0  0  0  0  0
 37 38  1  0  0  0
 38 36  1  0  0  0
 36 34  1  0  0  0
 34 35  2  0  0  0
 34 22  1  0  0  0
 22 23  2  0  0  0
 22 26  1  0  0  0
 23 24  1  0  0  0
 24 27  1  0  0  0
 24 25  1  0  0  0
 27 28  1  0  0  0
 27 33  2  0  0  0
 28 29  2  0  0  0
 29 30  1  0  0  0
 30 31  1  0  0  0
 30 32  2  0  0  0
 32 33  1  0  0  0
 25 26  2  0  0  0
 26  1  1  0  0  0
  1  2  2  0  0  0
  1  3  1  0  0  0
  3  4  2  0  0  0
  3  8  1  0  0  0
  4  5  1  0  0  0
  4  6  1  0  0  0
  6  7  1  0  0  0
  6  9  1  0  0  0
  7 10  1  0  0  0
  7  8  2  0  0  0
 10 11  1  0  0  0
 10 15  2  0  0  0
 11 12  2  0  0  0
 12 13  1  0  0  0
 13 14  2  0  0  0
 14 15  1  0  0  0
  8 16  1  0  0  0
 16 17  1  0  0  0
 16 21  2  0  0  0
 17 18  2  0  0  0
 18 19  1  0  0  0
 19 20  2  0  0  0
 20 21  1  0  0  0
M  END
> <minimizedAffinity>
-9.89854

$$$$
