CHEMBL382855


 27 30  0  0  0  0  0  0  0  0999 V2000
  -13.8126    1.4791  -13.7989 C   0  0  0  0  0  0  0  0  0  0  0  0
  -12.8299    1.9940  -12.9292 C   0  0  0  0  0  0  0  0  0  0  0  0
  -11.8888    2.9189  -13.3791 C   0  0  0  0  0  0  0  0  0  0  0  0
  -11.8975    3.3199  -14.7086 C   0  0  0  0  0  0  0  0  0  0  0  0
  -12.8460    2.7954  -15.5874 C   0  0  0  0  0  0  0  0  0  0  0  0
  -13.8193    1.8682  -15.1557 C   0  0  0  0  0  0  0  0  0  0  0  0
  -15.8275    0.8859  -12.7513 O   0  0  0  0  0  0  0  0  0  0  0  0
  -14.7842    0.4828  -13.2472 C   0  0  0  0  0  0  0  0  0  0  0  0
  -14.3948   -0.8417  -13.3741 N   0  0  0  0  0  0  0  0  0  0  0  0
  -13.4894   -1.0179  -13.7908 H   0  0  0  0  0  0  0  0  0  0  0  0
  -15.1038   -1.9887  -12.9569 C   0  0  0  0  0  0  0  0  0  0  0  0
  -15.5212   -2.2135  -11.6430 C   0  0  0  0  0  0  0  0  0  0  0  0
  -16.1964   -3.3916  -11.3019 C   0  0  0  0  0  0  0  0  0  0  0  0
  -16.4654   -4.3466  -12.2774 C   0  0  0  0  0  0  0  0  0  0  0  0
  -17.2882   -5.7963  -11.8548 Cl  0  0  0  0  0  0  0  0  0  0  0  0
  -16.0676   -4.1328  -13.5938 C   0  0  0  0  0  0  0  0  0  0  0  0
  -15.3876   -2.9572  -13.9309 C   0  0  0  0  0  0  0  0  0  0  0  0
  -14.8212    1.3721  -16.1805 C   0  0  0  0  0  0  0  0  0  0  0  0
  -16.1436    2.0117  -16.0207 N   0  0  0  0  0  0  0  0  0  0  0  0
  -16.2813    3.4043  -16.0810 C   0  0  0  0  0  0  0  0  0  0  0  0
  -17.4073    4.0847  -15.8146 C   0  0  0  0  0  0  0  0  0  0  0  0
  -18.5637    3.2733  -15.4127 C   0  0  0  0  0  0  0  0  0  0  0  0
  -19.7637    3.6104  -15.0598 N   0  0  0  0  0  0  0  0  0  0  0  0
  -20.3643    2.3850  -14.7896 C   0  0  0  0  0  0  0  0  0  0  0  0
  -19.6420    1.3111  -14.9527 N   0  0  0  0  0  0  0  0  0  0  0  0
  -18.4423    1.8148  -15.3580 C   0  0  0  0  0  0  0  0  0  0  0  0
  -17.2685    1.2592  -15.6560 C   0  0  0  0  0  0  0  0  0  0  0  0
  7  8  2  0  0  0
  8  9  1  0  0  0
  8  1  1  0  0  0
  9 11  1  0  0  0
  9 10  1  0  0  0
 11 12  1  0  0  0
 11 17  2  0  0  0
 12 13  2  0  0  0
 13 14  1  0  0  0
 14 15  1  0  0  0
 14 16  2  0  0  0
 16 17  1  0  0  0
  1  2  1  0  0  0
  1  6  2  0  0  0
  2  3  2  0  0  0
  3  4  1  0  0  0
  4  5  2  0  0  0
  5  6  1  0  0  0
  6 18  1  0  0  0
 18 19  1  0  0  0
 19 20  1  0  0  0
 19 27  1  0  0  0
 20 21  2  0  0  0
 21 22  1  0  0  0
 22 23  2  0  0  0
 22 26  1  0  0  0
 23 24  1  0  0  0
 24 25  2  0  0  0
 25 26  1  0  0  0
 26 27  2  0  0  0
M  END
> <minimizedAffinity>
-7.88541

$$$$
