CHEMBL1992581


 27 29  0  0  0  0  0  0  0  0999 V2000
  -21.7868    3.3744  -13.8471 O   0  0  0  0  0  0  0  0  0  0  0  0
  -21.1735    2.6119  -14.5897 C   0  0  0  0  0  0  0  0  0  0  0  0
  -21.3369    1.2348  -14.6596 N   0  0  0  0  0  0  0  0  0  0  0  0
  -20.6172    0.7107  -15.1421 H   0  0  0  0  0  0  0  0  0  0  0  0
  -22.3246    0.4809  -13.9897 C   0  0  0  0  0  0  0  0  0  0  0  0
  -23.4318   -0.0669  -14.6317 C   0  0  0  0  0  0  0  0  0  0  0  0
  -24.3964   -0.7909  -13.9181 C   0  0  0  0  0  0  0  0  0  0  0  0
  -24.2745   -0.9841  -12.5437 C   0  0  0  0  0  0  0  0  0  0  0  0
  -23.1421   -0.4598  -11.9035 C   0  0  0  0  0  0  0  0  0  0  0  0
  -22.1707    0.2552  -12.6191 C   0  0  0  0  0  0  0  0  0  0  0  0
  -25.4558   -1.8578  -11.5228 S   0  0  0  0  0  0  0  0  0  0  0  0
  -27.0482   -1.3972  -12.2409 C   0  0  0  0  0  0  0  0  0  0  0  0
  -27.4316   -2.3022  -13.1779 F   0  0  0  0  0  0  0  0  0  0  0  0
  -28.0080   -1.4173  -11.2801 F   0  0  0  0  0  0  0  0  0  0  0  0
  -20.1145    3.1456  -15.5408 C   0  0  0  0  0  0  0  0  0  0  0  0
  -18.7451    2.5483  -15.3278 C   0  0  0  0  0  0  0  0  0  0  0  0
  -17.6714    2.9400  -16.1310 C   0  0  0  0  0  0  0  0  0  0  0  0
  -16.3889    2.4232  -15.9081 C   0  0  0  0  0  0  0  0  0  0  0  0
  -16.1300    1.4934  -14.8853 C   0  0  0  0  0  0  0  0  0  0  0  0
  -17.2212    1.1186  -14.0800 C   0  0  0  0  0  0  0  0  0  0  0  0
  -18.5031    1.6418  -14.2905 C   0  0  0  0  0  0  0  0  0  0  0  0
  -14.7753    0.9343  -14.6743 C   0  0  0  0  0  0  0  0  0  0  0  0
  -14.0449    0.3083  -15.6953 C   0  0  0  0  0  0  0  0  0  0  0  0
  -12.7674   -0.1985  -15.4539 C   0  0  0  0  0  0  0  0  0  0  0  0
  -12.2411   -0.0800  -14.1800 C   0  0  0  0  0  0  0  0  0  0  0  0
  -12.8948    0.5076  -13.1602 N   0  0  0  0  0  0  0  0  0  0  0  0
  -14.1306    0.9984  -13.4343 C   0  0  0  0  0  0  0  0  0  0  0  0
  1  2  2  0  0  0
  2 15  1  0  0  0
  2  3  1  0  0  0
 15 16  1  0  0  0
 16 17  1  0  0  0
 16 21  2  0  0  0
 17 18  2  0  0  0
 18 19  1  0  0  0
 19 22  1  0  0  0
 19 20  2  0  0  0
 22 23  1  0  0  0
 22 27  2  0  0  0
 23 24  2  0  0  0
 24 25  1  0  0  0
 25 26  2  0  0  0
 26 27  1  0  0  0
 20 21  1  0  0  0
  3  5  1  0  0  0
  3  4  1  0  0  0
  5  6  1  0  0  0
  5 10  2  0  0  0
  6  7  2  0  0  0
  7  8  1  0  0  0
  8 11  1  0  0  0
  8  9  2  0  0  0
 11 12  1  0  0  0
 12 13  1  0  0  0
 12 14  1  0  0  0
  9 10  1  0  0  0
M  END
> <minimizedAffinity>
-8.96639

$$$$
