CHEMBL1744347


 33 36  0  0  0  0  0  0  0  0999 V2000
  -30.6370   -7.9674   -6.3781 C   0  0  0  0  0  0  0  0  0  0  0  0
  -29.8290   -9.0643   -6.7395 C   0  0  0  0  0  0  0  0  0  0  0  0
  -28.5876   -9.2855   -6.1264 C   0  0  0  0  0  0  0  0  0  0  0  0
  -27.6849  -10.3136   -6.5291 C   0  0  0  0  0  0  0  0  0  0  0  0
  -26.5152  -10.4336   -5.8535 N   0  0  0  0  0  0  0  0  0  0  0  0
  -26.1724   -9.6137   -4.8309 C   0  0  0  0  0  0  0  0  0  0  0  0
  -26.9975   -8.6019   -4.4654 N   0  0  0  0  0  0  0  0  0  0  0  0
  -28.1855   -8.4100   -5.0882 C   0  0  0  0  0  0  0  0  0  0  0  0
  -28.9931   -7.3183   -4.7202 C   0  0  0  0  0  0  0  0  0  0  0  0
  -30.2173   -7.0782   -5.3779 C   0  0  0  0  0  0  0  0  0  0  0  0
  -32.8320   -8.6184   -7.2478 C   0  0  0  0  0  0  0  0  0  0  0  0
  -31.8220   -7.7142   -6.9893 O   0  0  0  0  0  0  0  0  0  0  0  0
  -27.9527  -11.1768   -7.6533 N   0  0  0  0  0  0  0  0  0  0  0  0
  -28.2916  -12.1279   -7.4724 H   0  0  0  0  0  0  0  0  0  0  0  0
  -27.8912  -10.7931   -9.0420 C   0  0  0  0  0  0  0  0  0  0  0  0
  -26.7603  -10.1715   -9.6206 C   0  0  0  0  0  0  0  0  0  0  0  0
  -26.7594   -9.7818  -10.9593 C   0  0  0  0  0  0  0  0  0  0  0  0
  -27.8840   -9.9850  -11.7540 C   0  0  0  0  0  0  0  0  0  0  0  0
  -27.8679   -9.4860  -13.4344 Cl  0  0  0  0  0  0  0  0  0  0  0  0
  -29.0255  -10.5710  -11.2013 C   0  0  0  0  0  0  0  0  0  0  0  0
  -29.0375  -10.9690   -9.8574 C   0  0  0  0  0  0  0  0  0  0  0  0
  -30.1679  -11.5252   -9.3536 F   0  0  0  0  0  0  0  0  0  0  0  0
  -31.0208   -6.0065   -5.1003 O   0  0  0  0  0  0  0  0  0  0  0  0
  -31.4194   -5.5245   -3.8614 C   0  0  0  0  0  0  0  0  0  0  0  0
  -30.9436   -4.0805   -3.6045 C   0  0  0  0  0  0  0  0  0  0  0  0
  -29.4159   -3.8358   -3.7532 C   0  0  0  0  0  0  0  0  0  0  0  0
  -29.0064   -2.4553   -4.1405 N   0  0  0  0  0  0  0  0  0  0  0  0
  -27.6064   -2.3877   -4.6157 C   0  0  0  0  0  0  0  0  0  0  0  0
  -27.2429   -0.9497   -5.0311 C   0  0  0  0  0  0  0  0  0  0  0  0
  -28.1325   -0.4318   -6.0868 N   0  0  0  0  0  0  0  0  0  0  0  0
  -27.8530   -1.0068   -7.4151 C   0  0  0  0  0  0  0  0  0  0  0  0
  -29.5452   -0.5533   -5.6784 C   0  0  0  0  0  0  0  0  0  0  0  0
  -29.9011   -1.9854   -5.2291 C   0  0  0  0  0  0  0  0  0  0  0  0
 11 12  1  0  0  0
 12  1  1  0  0  0
  1  2  1  0  0  0
  1 10  2  0  0  0
  2  3  2  0  0  0
  3  4  1  0  0  0
  3  8  1  0  0  0
  4 13  1  0  0  0
  4  5  2  0  0  0
 13 15  1  0  0  0
 13 14  1  0  0  0
 15 16  1  0  0  0
 15 21  2  0  0  0
 16 17  2  0  0  0
 17 18  1  0  0  0
 18 19  1  0  0  0
 18 20  2  0  0  0
 20 21  1  0  0  0
 21 22  1  0  0  0
  5  6  1  0  0  0
  6  7  2  0  0  0
  7  8  1  0  0  0
  8  9  2  0  0  0
  9 10  1  0  0  0
 10 23  1  0  0  0
 23 24  1  0  0  0
 24 25  1  0  0  0
 25 26  1  0  0  0
 26 27  1  0  0  0
 27 28  1  0  0  0
 27 33  1  0  0  0
 28 29  1  0  0  0
 29 30  1  0  0  0
 30 31  1  0  0  0
 30 32  1  0  0  0
 32 33  1  0  0  0
M  END
> <minimizedAffinity>
-7.91224

$$$$
