CHEMBL4075917


 38 42  0  0  0  0  0  0  0  0999 V2000
  -27.3388  -10.2477   -6.3162 C   0  0  0  0  0  0  0  0  0  0  0  0
  -26.6700  -10.6320   -5.1290 C   0  0  0  0  0  0  0  0  0  0  0  0
  -25.8602  -11.7612   -5.0318 C   0  0  0  0  0  0  0  0  0  0  0  0
  -25.7195  -12.4651   -6.2220 C   0  0  0  0  0  0  0  0  0  0  0  0
  -26.2892  -12.1300   -7.4122 N   0  0  0  0  0  0  0  0  0  0  0  0
  -27.0646  -11.0062   -7.4758 C   0  0  0  0  0  0  0  0  0  0  0  0
  -27.7627   -4.8997   -4.2140 C   0  0  0  0  0  0  0  0  0  0  0  0
  -28.8699   -5.5610   -4.9452 C   0  0  0  0  0  0  0  0  0  0  0  0
  -30.0644   -4.9674   -5.0649 N   0  0  0  0  0  0  0  0  0  0  0  0
  -30.8091   -5.8723   -5.7233 N   0  0  0  0  0  0  0  0  0  0  0  0
  -30.1597   -7.0449   -5.9887 C   0  0  0  0  0  0  0  0  0  0  0  0
  -30.5828   -8.2339   -6.5748 C   0  0  0  0  0  0  0  0  0  0  0  0
  -29.6449   -9.2747   -6.6496 C   0  0  0  0  0  0  0  0  0  0  0  0
  -28.3080   -9.1260   -6.2214 C   0  0  0  0  0  0  0  0  0  0  0  0
  -27.9144   -7.8760   -5.7053 C   0  0  0  0  0  0  0  0  0  0  0  0
  -28.8625   -6.8518   -5.5351 C   0  0  0  0  0  0  0  0  0  0  0  0
  -31.7687   -5.6377   -5.9389 H   0  0  0  0  0  0  0  0  0  0  0  0
  -27.5840  -10.7197   -8.8508 C   0  0  0  0  0  0  0  0  0  0  0  0
  -26.9395   -9.7539   -9.6580 C   0  0  0  0  0  0  0  0  0  0  0  0
  -27.3405   -9.5051  -10.9772 C   0  0  0  0  0  0  0  0  0  0  0  0
  -28.3812  -10.2394  -11.5241 C   0  0  0  0  0  0  0  0  0  0  0  0
  -28.7482  -10.0267  -12.7949 F   0  0  0  0  0  0  0  0  0  0  0  0
  -29.0647  -11.1752  -10.7644 C   0  0  0  0  0  0  0  0  0  0  0  0
  -28.6936  -11.3738   -9.4311 C   0  0  0  0  0  0  0  0  0  0  0  0
  -29.4680  -12.2188   -8.6806 O   0  0  0  0  0  0  0  0  0  0  0  0
  -29.8288  -12.9090   -9.2634 H   0  0  0  0  0  0  0  0  0  0  0  0
  -25.1757  -12.1128   -3.8737 N   0  0  0  0  0  0  0  0  0  0  0  0
  -25.7191  -12.5298   -3.1245 H   0  0  0  0  0  0  0  0  0  0  0  0
  -23.9675  -11.4011   -3.4137 C   0  0  0  0  0  0  0  0  0  0  0  0
  -22.9429  -11.3227   -4.5425 C   0  0  0  0  0  0  0  0  0  0  0  0
  -22.0966  -12.4264   -4.7688 C   0  0  0  0  0  0  0  0  0  0  0  0
  -21.2347  -12.4652   -5.8682 C   0  0  0  0  0  0  0  0  0  0  0  0
  -21.2008  -11.3994   -6.7616 C   0  0  0  0  0  0  0  0  0  0  0  0
  -22.0173  -10.2907   -6.5477 C   0  0  0  0  0  0  0  0  0  0  0  0
  -22.8783  -10.2526   -5.4474 C   0  0  0  0  0  0  0  0  0  0  0  0
  -23.4802  -11.9909   -2.0632 C   0  0  0  0  0  0  0  0  0  0  0  0
  -22.3392  -11.3175   -1.5286 O   0  0  0  0  0  0  0  0  0  0  0  0
  -21.6005  -11.4987   -2.1324 H   0  0  0  0  0  0  0  0  0  0  0  0
  7  8  1  0  0  0
  8  9  2  0  0  0
  8 16  1  0  0  0
  9 10  1  0  0  0
 10 11  1  0  0  0
 10 17  1  0  0  0
 11 12  1  0  0  0
 11 16  2  0  0  0
 12 13  2  0  0  0
 13 14  1  0  0  0
 14  1  1  0  0  0
 14 15  2  0  0  0
  1  2  1  0  0  0
  1  6  2  0  0  0
  2  3  2  0  0  0
  3 27  1  0  0  0
  3  4  1  0  0  0
 27 29  1  0  0  0
 27 28  1  0  0  0
 29 36  1  0  0  0
 29 30  1  0  0  0
 36 37  1  0  0  0
 37 38  1  0  0  0
 30 31  1  0  0  0
 30 35  2  0  0  0
 31 32  2  0  0  0
 32 33  1  0  0  0
 33 34  2  0  0  0
 34 35  1  0  0  0
  4  5  2  0  0  0
  5  6  1  0  0  0
  6 18  1  0  0  0
 18 19  1  0  0  0
 18 24  2  0  0  0
 19 20  2  0  0  0
 20 21  1  0  0  0
 21 22  1  0  0  0
 21 23  2  0  0  0
 23 24  1  0  0  0
 24 25  1  0  0  0
 25 26  1  0  0  0
 15 16  1  0  0  0
M  END
> <minimizedAffinity>
-8.16155

$$$$
