CHEMBL3656039


 34 37  0  0  0  0  0  0  0  0999 V2000
  -29.1213   -9.1406   -9.4364 O   0  0  0  0  0  0  0  0  0  0  0  0
  -30.8835   -7.2513   -6.8331 C   0  0  0  0  0  0  0  0  0  0  0  0
  -32.0919   -7.9516   -6.7736 C   0  0  0  0  0  0  0  0  0  0  0  0
  -32.2924   -9.1016   -7.5360 C   0  0  0  0  0  0  0  0  0  0  0  0
  -31.2909   -9.5555   -8.3849 C   0  0  0  0  0  0  0  0  0  0  0  0
  -30.1276   -8.8024   -8.5550 C   0  0  0  0  0  0  0  0  0  0  0  0
  -29.9139   -7.6664   -7.7567 C   0  0  0  0  0  0  0  0  0  0  0  0
  -29.7250   -6.1218   -4.9181 C   0  0  0  0  0  0  0  0  0  0  0  0
  -29.0516   -7.0730   -4.5415 O   0  0  0  0  0  0  0  0  0  0  0  0
  -30.6039   -6.1458   -5.9994 N   0  0  0  0  0  0  0  0  0  0  0  0
  -30.9907   -5.2453   -6.2600 H   0  0  0  0  0  0  0  0  0  0  0  0
  -31.9789   -4.4388   -3.2504 C   0  0  0  0  0  0  0  0  0  0  0  0
  -30.5709   -4.0756   -3.5594 C   0  0  0  0  0  0  0  0  0  0  0  0
  -29.9071   -2.8774   -3.1753 C   0  0  0  0  0  0  0  0  0  0  0  0
  -28.6255   -2.9660   -3.6596 C   0  0  0  0  0  0  0  0  0  0  0  0
  -28.4439   -4.1374   -4.3169 O   0  0  0  0  0  0  0  0  0  0  0  0
  -29.6326   -4.8204   -4.2683 C   0  0  0  0  0  0  0  0  0  0  0  0
  -28.2812  -10.1952   -9.1472 C   0  0  0  0  0  0  0  0  0  0  0  0
  -28.4627  -11.4982   -9.6036 C   0  0  0  0  0  0  0  0  0  0  0  0
  -27.5575  -12.4658   -9.2023 C   0  0  0  0  0  0  0  0  0  0  0  0
  -26.4725  -12.2143   -8.4383 N   0  0  0  0  0  0  0  0  0  0  0  0
  -26.2819  -10.9281   -8.0592 C   0  0  0  0  0  0  0  0  0  0  0  0
  -27.1533   -9.8965   -8.3910 C   0  0  0  0  0  0  0  0  0  0  0  0
  -25.0677  -10.6944   -7.2835 C   0  0  0  0  0  0  0  0  0  0  0  0
  -23.7840  -11.1807   -7.4326 C   0  0  0  0  0  0  0  0  0  0  0  0
  -22.9688  -10.6916   -6.3706 C   0  0  0  0  0  0  0  0  0  0  0  0
  -23.7919   -9.8774   -5.6091 C   0  0  0  0  0  0  0  0  0  0  0  0
  -25.0424   -9.8755   -6.1778 N   0  0  0  0  0  0  0  0  0  0  0  0
  -25.8549   -9.3708   -5.8442 H   0  0  0  0  0  0  0  0  0  0  0  0
  -21.5634  -11.0247   -6.1759 C   0  0  0  0  0  0  0  0  0  0  0  0
  -20.6545  -10.1782   -6.7305 N   0  0  0  0  0  0  0  0  0  0  0  0
  -21.1915  -12.0073   -5.5410 O   0  0  0  0  0  0  0  0  0  0  0  0
  -20.9171   -9.3493   -7.2382 H   0  0  0  0  0  0  0  0  0  0  0  0
  -19.6792  -10.3829   -6.5810 H   0  0  0  0  0  0  0  0  0  0  0  0
 12 13  1  0  0  0
 13 14  1  0  0  0
 13 17  2  0  0  0
 14 15  2  0  0  0
 15 16  1  0  0  0
 16 17  1  0  0  0
 17  8  1  0  0  0
  8  9  2  0  0  0
  8 10  1  0  0  0
 10  2  1  0  0  0
 10 11  1  0  0  0
  2  3  1  0  0  0
  2  7  2  0  0  0
  3  4  2  0  0  0
  4  5  1  0  0  0
  5  6  2  0  0  0
  6  1  1  0  0  0
  6  7  1  0  0  0
  1 18  1  0  0  0
 18 19  1  0  0  0
 18 23  2  0  0  0
 19 20  2  0  0  0
 20 21  1  0  0  0
 21 22  2  0  0  0
 22 24  1  0  0  0
 22 23  1  0  0  0
 24 25  2  0  0  0
 24 28  1  0  0  0
 25 26  1  0  0  0
 26 30  1  0  0  0
 26 27  2  0  0  0
 30 31  1  0  0  0
 30 32  2  0  0  0
 31 33  1  0  0  0
 31 34  1  0  0  0
 27 28  1  0  0  0
 28 29  1  0  0  0
M  END
> <minimizedAffinity>
-8.38004

$$$$
