CHEMBL3983004


 31 34  0  0  0  0  0  0  0  0999 V2000
  -16.1676    2.1231  -15.9881 C   0  0  0  0  0  0  0  0  0  0  0  0
  -16.1592    1.4586  -14.7477 C   0  0  0  0  0  0  0  0  0  0  0  0
  -17.3461    1.2560  -14.0081 C   0  0  0  0  0  0  0  0  0  0  0  0
  -18.5085    1.9158  -14.4420 C   0  0  0  0  0  0  0  0  0  0  0  0
  -19.8865    2.0961  -14.0620 C   0  0  0  0  0  0  0  0  0  0  0  0
  -20.1192    3.4161  -14.2081 N   0  0  0  0  0  0  0  0  0  0  0  0
  -19.4161    3.6767  -15.3285 N   0  0  0  0  0  0  0  0  0  0  0  0
  -18.3773    2.7971  -15.5078 C   0  0  0  0  0  0  0  0  0  0  0  0
  -17.3210    2.7892  -16.4124 C   0  0  0  0  0  0  0  0  0  0  0  0
  -19.5921    4.5358  -15.8326 H   0  0  0  0  0  0  0  0  0  0  0  0
  -14.9434    2.2970  -16.8425 C   0  0  0  0  0  0  0  0  0  0  0  0
  -14.3473    1.2850  -17.2349 O   0  0  0  0  0  0  0  0  0  0  0  0
  -13.2920    5.6933  -16.6953 C   0  0  0  0  0  0  0  0  0  0  0  0
  -13.3843    6.0794  -18.0350 C   0  0  0  0  0  0  0  0  0  0  0  0
  -14.0666    5.2952  -18.9632 C   0  0  0  0  0  0  0  0  0  0  0  0
  -14.6400    4.0973  -18.5675 C   0  0  0  0  0  0  0  0  0  0  0  0
  -14.4508    3.6275  -17.2661 C   0  0  0  0  0  0  0  0  0  0  0  0
  -13.7980    4.4432  -16.3193 C   0  0  0  0  0  0  0  0  0  0  0  0
  -11.2319    7.2568  -13.9451 C   0  0  0  0  0  0  0  0  0  0  0  0
  -11.5813    6.1946  -14.9530 C   0  0  0  0  0  0  0  0  0  0  0  0
  -10.8949    5.1792  -15.0438 O   0  0  0  0  0  0  0  0  0  0  0  0
  -12.7023    6.5111  -15.7057 N   0  0  0  0  0  0  0  0  0  0  0  0
  -13.0672    7.4557  -15.6224 H   0  0  0  0  0  0  0  0  0  0  0  0
  -21.0356    1.3017  -14.4958 C   0  0  0  0  0  0  0  0  0  0  0  0
  -22.2027    1.2633  -13.8269 C   0  0  0  0  0  0  0  0  0  0  0  0
  -22.8621   -0.0134  -13.4548 C   0  0  0  0  0  0  0  0  0  0  0  0
  -22.6336   -0.5995  -12.1929 C   0  0  0  0  0  0  0  0  0  0  0  0
  -23.4454   -1.6333  -11.7142 C   0  0  0  0  0  0  0  0  0  0  0  0
  -24.5001   -2.1031  -12.4891 C   0  0  0  0  0  0  0  0  0  0  0  0
  -24.7289   -1.5487  -13.7485 C   0  0  0  0  0  0  0  0  0  0  0  0
  -23.9196   -0.5077  -14.2244 C   0  0  0  0  0  0  0  0  0  0  0  0
 19 20  1  0  0  0
 20 21  2  0  0  0
 20 22  1  0  0  0
 22 13  1  0  0  0
 22 23  1  0  0  0
 13 14  1  0  0  0
 13 18  2  0  0  0
 14 15  2  0  0  0
 15 16  1  0  0  0
 16 17  2  0  0  0
 17 11  1  0  0  0
 17 18  1  0  0  0
 11 12  2  0  0  0
 11  1  1  0  0  0
  1  2  1  0  0  0
  1  9  2  0  0  0
  2  3  2  0  0  0
  3  4  1  0  0  0
  4  5  1  0  0  0
  4  8  2  0  0  0
  5 24  1  0  0  0
  5  6  2  0  0  0
 24 25  2  0  0  0
 25 26  1  0  0  0
 26 27  1  0  0  0
 26 31  2  0  0  0
 27 28  2  0  0  0
 28 29  1  0  0  0
 29 30  2  0  0  0
 30 31  1  0  0  0
  6  7  1  0  0  0
  7  8  1  0  0  0
  7 10  1  0  0  0
  8  9  1  0  0  0
M  END
> <minimizedAffinity>
-10.17257

$$$$
