CHEMBL3911738


 39 42  0  0  0  0  0  0  0  0999 V2000
  -16.6142    2.0810  -15.1785 N   0  0  0  0  0  0  0  0  0  0  0  0
  -18.0895    1.8980  -15.2068 C   0  0  0  0  0  0  0  0  0  0  0  0
  -18.7640    3.1068  -15.0738 C   0  0  0  0  0  0  0  0  0  0  0  0
  -20.0601    3.1832  -14.7106 C   0  0  0  0  0  0  0  0  0  0  0  0
  -20.8149    2.0750  -14.5191 C   0  0  0  0  0  0  0  0  0  0  0  0
  -22.0185    2.3129  -14.0079 N   0  0  0  0  0  0  0  0  0  0  0  0
  -22.9119    1.3610  -13.8115 C   0  0  0  0  0  0  0  0  0  0  0  0
  -22.6863    0.0494  -14.2382 C   0  0  0  0  0  0  0  0  0  0  0  0
  -21.3692   -0.2585  -14.6931 N   0  0  0  0  0  0  0  0  0  0  0  0
  -20.3757    0.7635  -14.7953 C   0  0  0  0  0  0  0  0  0  0  0  0
  -18.9180    0.6579  -15.1345 C   0  0  0  0  0  0  0  0  0  0  0  0
  -24.0513   -0.7066  -14.3418 C   0  0  0  0  0  0  0  0  0  0  0  0
  -24.9544   -0.8411  -15.3812 C   0  0  0  0  0  0  0  0  0  0  0  0
  -26.1249   -1.3601  -14.9011 N   0  0  0  0  0  0  0  0  0  0  0  0
  -25.9999   -1.6204  -13.6044 N   0  0  0  0  0  0  0  0  0  0  0  0
  -24.7433   -1.3000  -13.2395 C   0  0  0  0  0  0  0  0  0  0  0  0
  -27.1277   -1.9889  -12.6871 C   0  0  0  0  0  0  0  0  0  0  0  0
  -27.4916   -0.9587  -11.6013 C   0  0  0  0  0  0  0  0  0  0  0  0
  -28.4131   -2.3217  -13.4867 C   0  0  0  0  0  0  0  0  0  0  0  0
  -14.1957    1.9014  -18.1415 C   0  0  0  0  0  0  0  0  0  0  0  0
  -14.1656    3.2635  -18.4991 C   0  0  0  0  0  0  0  0  0  0  0  0
  -14.8665    4.2074  -17.7637 C   0  0  0  0  0  0  0  0  0  0  0  0
  -15.6234    3.7914  -16.6627 C   0  0  0  0  0  0  0  0  0  0  0  0
  -15.6950    2.4424  -16.2447 C   0  0  0  0  0  0  0  0  0  0  0  0
  -14.9489    1.4943  -16.9989 C   0  0  0  0  0  0  0  0  0  0  0  0
  -12.9669    1.2102  -20.1430 C   0  0  0  0  0  0  0  0  0  0  0  0
  -13.5356    0.9731  -18.8955 O   0  0  0  0  0  0  0  0  0  0  0  0
  -14.8065    5.5101  -18.1495 O   0  0  0  0  0  0  0  0  0  0  0  0
  -14.8258    5.9555  -19.4568 C   0  0  0  0  0  0  0  0  0  0  0  0
  -15.9839    1.6808  -13.8731 C   0  0  0  0  0  0  0  0  0  0  0  0
  -15.9814    0.1624  -13.4468 C   0  0  0  0  0  0  0  0  0  0  0  0
  -14.7760   -0.7702  -13.7579 C   0  0  0  0  0  0  0  0  0  0  0  0
  -14.3863   -1.4877  -12.5159 N   0  0  0  0  0  0  0  0  0  0  0  0
  -14.7482   -0.9606  -11.6866 H   0  0  0  0  0  0  0  0  0  0  0  0
  -14.9076   -2.8655  -12.4447 C   0  0  0  0  0  0  0  0  0  0  0  0
  -15.6895   -3.1358  -11.1304 C   0  0  0  0  0  0  0  0  0  0  0  0
  -14.8684   -3.6210  -10.1212 F   0  0  0  0  0  0  0  0  0  0  0  0
  -16.2789   -1.9655  -10.6823 F   0  0  0  0  0  0  0  0  0  0  0  0
  -16.6963   -4.0627  -11.3493 F   0  0  0  0  0  0  0  0  0  0  0  0
 26 27  1  0  0  0
 27 20  1  0  0  0
 20 21  1  0  0  0
 20 25  2  0  0  0
 21 22  2  0  0  0
 22 28  1  0  0  0
 22 23  1  0  0  0
 28 29  1  0  0  0
 23 24  2  0  0  0
 24  1  1  0  0  0
 24 25  1  0  0  0
  1 30  1  0  0  0
  1  2  1  0  0  0
 30 31  1  0  0  0
 31 32  1  0  0  0
 32 33  1  0  0  0
 33 35  1  0  0  0
 33 34  1  0  0  0
 35 36  1  0  0  0
 36 37  1  0  0  0
 36 38  1  0  0  0
 36 39  1  0  0  0
  2  3  1  0  0  0
  2 11  2  0  0  0
  3  4  2  0  0  0
  4  5  1  0  0  0
  5  6  1  0  0  0
  5 10  2  0  0  0
  6  7  2  0  0  0
  7  8  1  0  0  0
  8 12  1  0  0  0
  8  9  2  0  0  0
 12 13  1  0  0  0
 12 16  2  0  0  0
 13 14  2  0  0  0
 14 15  1  0  0  0
 15 17  1  0  0  0
 15 16  1  0  0  0
 17 18  1  0  0  0
 17 19  1  0  0  0
  9 10  1  0  0  0
 10 11  1  0  0  0
M  END
> <minimizedAffinity>
-8.43818

$$$$
