CHEMBL182648


 30 33  0  0  0  0  0  0  0  0999 V2000
  -24.4711   -1.5994  -12.3460 C   0  0  0  0  0  0  0  0  0  0  0  0
  -23.2524   -1.2253  -11.7761 C   0  0  0  0  0  0  0  0  0  0  0  0
  -22.3486   -0.4131  -12.4682 C   0  0  0  0  0  0  0  0  0  0  0  0
  -22.6527    0.0739  -13.7417 C   0  0  0  0  0  0  0  0  0  0  0  0
  -23.8424   -0.3826  -14.3430 C   0  0  0  0  0  0  0  0  0  0  0  0
  -24.7341   -1.2221  -13.6627 C   0  0  0  0  0  0  0  0  0  0  0  0
  -21.8853    1.1671  -14.3685 C   0  0  0  0  0  0  0  0  0  0  0  0
  -22.1902    2.5215  -14.1123 C   0  0  0  0  0  0  0  0  0  0  0  0
  -21.2775    3.5604  -14.3886 C   0  0  0  0  0  0  0  0  0  0  0  0
  -20.0018    3.2667  -14.8571 C   0  0  0  0  0  0  0  0  0  0  0  0
  -19.7291    1.9423  -15.1288 C   0  0  0  0  0  0  0  0  0  0  0  0
  -20.6671    0.9171  -14.9947 C   0  0  0  0  0  0  0  0  0  0  0  0
  -20.0164   -0.3547  -15.4211 C   0  0  0  0  0  0  0  0  0  0  0  0
  -18.6193   -0.0696  -15.2282 N   0  0  0  0  0  0  0  0  0  0  0  0
  -18.4094    1.2985  -15.1714 C   0  0  0  0  0  0  0  0  0  0  0  0
  -17.3546    1.8539  -14.9506 O   0  0  0  0  0  0  0  0  0  0  0  0
  -18.1048   -0.5871  -14.5239 H   0  0  0  0  0  0  0  0  0  0  0  0
  -25.7080   -0.8840   -9.8478 O   0  0  0  0  0  0  0  0  0  0  0  0
  -26.0092   -1.9190  -10.4283 C   0  0  0  0  0  0  0  0  0  0  0  0
  -25.4686   -2.3126  -11.6433 N   0  0  0  0  0  0  0  0  0  0  0  0
  -26.9476   -2.8265   -9.9717 N   0  0  0  0  0  0  0  0  0  0  0  0
  -25.9962   -2.9860  -12.1761 H   0  0  0  0  0  0  0  0  0  0  0  0
  -27.0519   -3.6780  -10.4947 H   0  0  0  0  0  0  0  0  0  0  0  0
  -27.7331   -2.7083   -8.8001 C   0  0  0  0  0  0  0  0  0  0  0  0
  -28.5915   -3.7147   -8.3343 C   0  0  0  0  0  0  0  0  0  0  0  0
  -29.3440   -3.5372   -7.1666 C   0  0  0  0  0  0  0  0  0  0  0  0
  -29.2333   -2.3557   -6.4486 C   0  0  0  0  0  0  0  0  0  0  0  0
  -28.3785   -1.3696   -6.9075 C   0  0  0  0  0  0  0  0  0  0  0  0
  -28.2720   -0.2287   -6.2105 F   0  0  0  0  0  0  0  0  0  0  0  0
  -27.6333   -1.5249   -8.0728 C   0  0  0  0  0  0  0  0  0  0  0  0
 18 19  2  0  0  0
 19 20  1  0  0  0
 19 21  1  0  0  0
 20  1  1  0  0  0
 20 22  1  0  0  0
  1  2  1  0  0  0
  1  6  2  0  0  0
  2  3  2  0  0  0
  3  4  1  0  0  0
  4  7  1  0  0  0
  4  5  2  0  0  0
  7  8  1  0  0  0
  7 12  2  0  0  0
  8  9  2  0  0  0
  9 10  1  0  0  0
 10 11  2  0  0  0
 11 12  1  0  0  0
 11 15  1  0  0  0
 12 13  1  0  0  0
 13 14  1  0  0  0
 14 15  1  0  0  0
 14 17  1  0  0  0
 15 16  2  0  0  0
  5  6  1  0  0  0
 21 24  1  0  0  0
 21 23  1  0  0  0
 24 25  1  0  0  0
 24 30  2  0  0  0
 25 26  2  0  0  0
 26 27  1  0  0  0
 27 28  2  0  0  0
 28 29  1  0  0  0
 28 30  1  0  0  0
M  END
> <minimizedAffinity>
-10.70444

$$$$
