CHEMBL3945264


 36 40  0  0  0  0  0  0  0  0999 V2000
  -15.6193    1.6636  -15.1517 N   0  0  0  0  0  0  0  0  0  0  0  0
  -16.9877    2.1255  -15.1231 C   0  0  0  0  0  0  0  0  0  0  0  0
  -17.3230    3.4415  -15.5049 C   0  0  0  0  0  0  0  0  0  0  0  0
  -18.6482    3.8919  -15.4472 C   0  0  0  0  0  0  0  0  0  0  0  0
  -19.6570    3.0431  -14.9899 C   0  0  0  0  0  0  0  0  0  0  0  0
  -20.9476    3.4637  -14.9127 N   0  0  0  0  0  0  0  0  0  0  0  0
  -21.9325    2.6468  -14.4565 C   0  0  0  0  0  0  0  0  0  0  0  0
  -21.6187    1.3373  -14.0444 C   0  0  0  0  0  0  0  0  0  0  0  0
  -20.3267    0.9209  -14.1266 N   0  0  0  0  0  0  0  0  0  0  0  0
  -19.3432    1.7355  -14.5860 C   0  0  0  0  0  0  0  0  0  0  0  0
  -18.0284    1.2814  -14.6586 C   0  0  0  0  0  0  0  0  0  0  0  0
  -22.6469    0.4121  -13.5303 C   0  0  0  0  0  0  0  0  0  0  0  0
  -22.6945   -0.9597  -13.7213 C   0  0  0  0  0  0  0  0  0  0  0  0
  -23.7946   -1.4477  -13.1070 N   0  0  0  0  0  0  0  0  0  0  0  0
  -24.4238   -0.4357  -12.5429 N   0  0  0  0  0  0  0  0  0  0  0  0
  -25.6660   -0.5623  -11.7937 C   0  0  0  0  0  0  0  0  0  0  0  0
  -23.7630    0.7149  -12.7722 C   0  0  0  0  0  0  0  0  0  0  0  0
  -14.0101    0.7799  -18.4868 C   0  0  0  0  0  0  0  0  0  0  0  0
  -13.2972    1.9121  -18.8142 C   0  0  0  0  0  0  0  0  0  0  0  0
  -13.2745    3.0192  -17.9543 C   0  0  0  0  0  0  0  0  0  0  0  0
  -14.0181    2.9933  -16.7231 C   0  0  0  0  0  0  0  0  0  0  0  0
  -13.9693    4.2500  -15.8667 C   0  0  0  0  0  0  0  0  0  0  0  0
  -14.8006    1.8134  -16.3790 C   0  0  0  0  0  0  0  0  0  0  0  0
  -14.7176    0.7523  -17.3039 C   0  0  0  0  0  0  0  0  0  0  0  0
  -13.2798   -1.4623  -19.1223 C   0  0  0  0  0  0  0  0  0  0  0  0
  -14.0447   -0.3274  -19.2766 O   0  0  0  0  0  0  0  0  0  0  0  0
  -12.5434    4.1179  -18.3026 O   0  0  0  0  0  0  0  0  0  0  0  0
  -12.7824    4.9256  -19.4039 C   0  0  0  0  0  0  0  0  0  0  0  0
  -15.1173    1.1163  -13.8396 C   0  0  0  0  0  0  0  0  0  0  0  0
  -15.2015   -0.3983  -13.6516 C   0  0  0  0  0  0  0  0  0  0  0  0
  -15.6939   -0.9754  -12.3171 C   0  0  0  0  0  0  0  0  0  0  0  0
  -15.0329   -2.2638  -11.9535 N   0  0  0  0  0  0  0  0  0  0  0  0
  -14.8859   -3.2893  -13.0046 C   0  0  0  0  0  0  0  0  0  0  0  0
  -16.0974   -4.2006  -12.8964 C   0  0  0  0  0  0  0  0  0  0  0  0
  -16.4512   -4.1789  -11.4171 C   0  0  0  0  0  0  0  0  0  0  0  0
  -15.6586   -2.9940  -10.8376 C   0  0  0  0  0  0  0  0  0  0  0  0
 25 26  1  0  0  0
 26 18  1  0  0  0
 18 19  1  0  0  0
 18 24  2  0  0  0
 19 20  2  0  0  0
 20 27  1  0  0  0
 20 21  1  0  0  0
 27 28  1  0  0  0
 21 22  1  0  0  0
 21 23  2  0  0  0
 23  1  1  0  0  0
 23 24  1  0  0  0
  1 29  1  0  0  0
  1  2  1  0  0  0
 29 30  1  0  0  0
 30 31  1  0  0  0
 31 32  1  0  0  0
 32 33  1  0  0  0
 32 36  1  0  0  0
 33 34  1  0  0  0
 34 35  1  0  0  0
 35 36  1  0  0  0
  2  3  1  0  0  0
  2 11  2  0  0  0
  3  4  2  0  0  0
  4  5  1  0  0  0
  5  6  1  0  0  0
  5 10  2  0  0  0
  6  7  2  0  0  0
  7  8  1  0  0  0
  8 12  1  0  0  0
  8  9  2  0  0  0
 12 13  1  0  0  0
 12 17  2  0  0  0
 13 14  2  0  0  0
 14 15  1  0  0  0
 15 16  1  0  0  0
 15 17  1  0  0  0
  9 10  1  0  0  0
 10 11  1  0  0  0
M  END
> <minimizedAffinity>
-8.63438

$$$$
