CHEMBL3671579


 38 41  0  0  0  0  0  0  0  0999 V2000
  -29.7677   -4.9497   -7.0314 C   0  0  0  0  0  0  0  0  0  0  0  0
  -29.0953   -4.2034   -8.0002 C   0  0  0  0  0  0  0  0  0  0  0  0
  -28.5488   -2.9375   -7.6829 C   0  0  0  0  0  0  0  0  0  0  0  0
  -27.9555   -2.0619   -8.6059 C   0  0  0  0  0  0  0  0  0  0  0  0
  -27.4534   -0.8693   -8.2341 N   0  0  0  0  0  0  0  0  0  0  0  0
  -27.5679   -0.5380   -6.9481 C   0  0  0  0  0  0  0  0  0  0  0  0
  -28.1506   -1.2720   -5.9974 N   0  0  0  0  0  0  0  0  0  0  0  0
  -28.6459   -2.4568   -6.3660 C   0  0  0  0  0  0  0  0  0  0  0  0
  -29.2950   -3.2305   -5.4131 C   0  0  0  0  0  0  0  0  0  0  0  0
  -29.8383   -4.4812   -5.7133 C   0  0  0  0  0  0  0  0  0  0  0  0
  -29.7020   -7.3379   -7.3277 C   0  0  0  0  0  0  0  0  0  0  0  0
  -28.5494   -7.4743   -6.9436 O   0  0  0  0  0  0  0  0  0  0  0  0
  -30.3975   -6.1439   -7.4366 N   0  0  0  0  0  0  0  0  0  0  0  0
  -31.3684   -6.2369   -7.1553 H   0  0  0  0  0  0  0  0  0  0  0  0
  -31.8578   -8.5220   -7.3923 C   0  0  0  0  0  0  0  0  0  0  0  0
  -30.5572   -8.4932   -7.7059 C   0  0  0  0  0  0  0  0  0  0  0  0
  -27.9201   -2.3990   -9.9850 N   0  0  0  0  0  0  0  0  0  0  0  0
  -28.1154   -3.3869  -10.1225 H   0  0  0  0  0  0  0  0  0  0  0  0
  -26.9479   -1.9162  -10.8918 C   0  0  0  0  0  0  0  0  0  0  0  0
  -25.6697   -1.5420  -10.4508 C   0  0  0  0  0  0  0  0  0  0  0  0
  -24.6885   -1.1324  -11.3567 C   0  0  0  0  0  0  0  0  0  0  0  0
  -24.9899   -1.0749  -12.7154 C   0  0  0  0  0  0  0  0  0  0  0  0
  -23.6427   -0.5849  -13.9470 Br  0  0  0  0  0  0  0  0  0  0  0  0
  -26.2677   -1.3883  -13.1730 C   0  0  0  0  0  0  0  0  0  0  0  0
  -27.2350   -1.7951  -12.2570 C   0  0  0  0  0  0  0  0  0  0  0  0
  -28.4627   -2.1073  -12.7023 F   0  0  0  0  0  0  0  0  0  0  0  0
  -30.3994   -5.1307   -4.6394 O   0  0  0  0  0  0  0  0  0  0  0  0
  -29.4700   -5.6813   -3.7002 C   0  0  0  0  0  0  0  0  0  0  0  0
  -29.5930   -7.2079   -3.6609 C   0  0  0  0  0  0  0  0  0  0  0  0
  -28.3023   -7.8696   -3.8077 N   0  0  0  0  0  0  0  0  0  0  0  0
  -28.1471   -9.2205   -3.5442 C   0  0  0  0  0  0  0  0  0  0  0  0
  -29.0956   -9.9440   -3.2475 O   0  0  0  0  0  0  0  0  0  0  0  0
  -27.4830   -7.2938   -3.9521 H   0  0  0  0  0  0  0  0  0  0  0  0
  -26.7035   -9.7376   -3.6742 C   0  0  0  0  0  0  0  0  0  0  0  0
  -26.1601   -9.4064   -5.0039 N   0  0  0  0  0  0  0  0  0  0  0  0
  -26.6699  -10.3608   -6.0262 C   0  0  0  0  0  0  0  0  0  0  0  0
  -25.2448  -10.3995   -6.6087 C   0  0  0  0  0  0  0  0  0  0  0  0
  -24.8076  -10.0166   -5.1821 C   0  0  0  0  0  0  0  0  0  0  0  0
 15 16  2  0  0  0
 16 11  1  0  0  0
 11 12  2  0  0  0
 11 13  1  0  0  0
 13  1  1  0  0  0
 13 14  1  0  0  0
  1  2  1  0  0  0
  1 10  2  0  0  0
  2  3  2  0  0  0
  3  4  1  0  0  0
  3  8  1  0  0  0
  4 17  1  0  0  0
  4  5  2  0  0  0
 17 19  1  0  0  0
 17 18  1  0  0  0
 19 20  1  0  0  0
 19 25  2  0  0  0
 20 21  2  0  0  0
 21 22  1  0  0  0
 22 23  1  0  0  0
 22 24  2  0  0  0
 24 25  1  0  0  0
 25 26  1  0  0  0
  5  6  1  0  0  0
  6  7  2  0  0  0
  7  8  1  0  0  0
  8  9  2  0  0  0
  9 10  1  0  0  0
 10 27  1  0  0  0
 27 28  1  0  0  0
 28 29  1  0  0  0
 29 30  1  0  0  0
 30 31  1  0  0  0
 30 33  1  0  0  0
 31 32  2  0  0  0
 31 34  1  0  0  0
 34 35  1  0  0  0
 35 36  1  0  0  0
 35 38  1  0  0  0
 36 37  1  0  0  0
 37 38  1  0  0  0
M  END
> <minimizedAffinity>
-9.02728

$$$$
