CHEMBL357813


 37 42  0  0  0  0  0  0  0  0999 V2000
  -29.0406   -4.7587   -3.9356 C   0  0  0  0  0  0  0  0  0  0  0  0
  -30.2345   -4.8419   -4.6502 C   0  0  0  0  0  0  0  0  0  0  0  0
  -30.4758   -5.8853   -5.5347 C   0  0  0  0  0  0  0  0  0  0  0  0
  -29.4870   -6.8656   -5.6943 C   0  0  0  0  0  0  0  0  0  0  0  0
  -28.2925   -6.8343   -4.9445 C   0  0  0  0  0  0  0  0  0  0  0  0
  -28.0724   -5.7799   -4.0323 C   0  0  0  0  0  0  0  0  0  0  0  0
  -27.6602   -7.9681   -5.3161 C   0  0  0  0  0  0  0  0  0  0  0  0
  -26.8223   -8.7589   -4.4747 C   0  0  0  0  0  0  0  0  0  0  0  0
  -26.9180  -10.2010   -4.6694 C   0  0  0  0  0  0  0  0  0  0  0  0
  -27.7309  -10.6895   -5.6991 C   0  0  0  0  0  0  0  0  0  0  0  0
  -27.6850   -9.7813   -6.7547 C   0  0  0  0  0  0  0  0  0  0  0  0
  -28.1796   -8.5636   -6.4238 C   0  0  0  0  0  0  0  0  0  0  0  0
  -29.4888   -8.0557   -6.4413 N   0  0  0  0  0  0  0  0  0  0  0  0
  -27.4649  -10.5023   -8.0099 C   0  0  0  0  0  0  0  0  0  0  0  0
  -28.4236  -11.6224   -7.7267 C   0  0  0  0  0  0  0  0  0  0  0  0
  -29.4331  -11.8825   -8.6504 C   0  0  0  0  0  0  0  0  0  0  0  0
  -30.6633  -12.2677   -8.1559 C   0  0  0  0  0  0  0  0  0  0  0  0
  -30.8274  -12.4659   -6.7734 C   0  0  0  0  0  0  0  0  0  0  0  0
  -29.7647  -12.2450   -5.8439 C   0  0  0  0  0  0  0  0  0  0  0  0
  -28.5129  -11.7922   -6.2974 C   0  0  0  0  0  0  0  0  0  0  0  0
  -25.7267  -10.7726   -4.0895 C   0  0  0  0  0  0  0  0  0  0  0  0
  -25.2297  -11.8853   -4.1280 O   0  0  0  0  0  0  0  0  0  0  0  0
  -25.0160   -9.6476   -3.5859 N   0  0  0  0  0  0  0  0  0  0  0  0
  -25.6462   -8.3421   -3.7324 C   0  0  0  0  0  0  0  0  0  0  0  0
  -24.0117   -9.7298   -3.4992 H   0  0  0  0  0  0  0  0  0  0  0  0
  -28.7314   -3.5514   -3.1123 C   0  0  0  0  0  0  0  0  0  0  0  0
  -29.5025   -2.4778   -3.6474 O   0  0  0  0  0  0  0  0  0  0  0  0
  -28.6720   -1.6264   -4.4149 C   0  0  0  0  0  0  0  0  0  0  0  0
  -29.4880   -0.9675   -5.5184 C   0  0  0  0  0  0  0  0  0  0  0  0
  -28.3193    1.0653   -6.4303 C   0  0  0  0  0  0  0  0  0  0  0  0
  -29.3825    0.5636   -5.4553 C   0  0  0  0  0  0  0  0  0  0  0  0
  -30.7225    1.2438   -5.7459 C   0  0  0  0  0  0  0  0  0  0  0  0
  -30.6653   -8.9257   -6.5856 C   0  0  0  0  0  0  0  0  0  0  0  0
  -31.6101   -8.7561   -7.7721 C   0  0  0  0  0  0  0  0  0  0  0  0
  -33.0813   -8.8738   -7.3745 C   0  0  0  0  0  0  0  0  0  0  0  0
  -33.3950  -10.2369   -7.1044 O   0  0  0  0  0  0  0  0  0  0  0  0
  -33.2954  -10.7375   -7.9327 H   0  0  0  0  0  0  0  0  0  0  0  0
 30 31  1  0  0  0
 31 32  1  0  0  0
 31 29  1  0  0  0
 29 28  1  0  0  0
 28 27  1  0  0  0
 27 26  1  0  0  0
 26  1  1  0  0  0
  1  2  1  0  0  0
  1  6  2  0  0  0
  2  3  2  0  0  0
  3  4  1  0  0  0
  4  5  2  0  0  0
  4 13  1  0  0  0
  5  6  1  0  0  0
  5  7  1  0  0  0
  7  8  1  0  0  0
  7 12  2  0  0  0
  8  9  2  0  0  0
  8 24  1  0  0  0
  9 10  1  0  0  0
  9 21  1  0  0  0
 10 11  2  0  0  0
 10 20  1  0  0  0
 11 12  1  0  0  0
 11 14  1  0  0  0
 12 13  1  0  0  0
 13 33  1  0  0  0
 33 34  1  0  0  0
 34 35  1  0  0  0
 35 36  1  0  0  0
 36 37  1  0  0  0
 14 15  1  0  0  0
 15 16  1  0  0  0
 15 20  2  0  0  0
 16 17  2  0  0  0
 17 18  1  0  0  0
 18 19  2  0  0  0
 19 20  1  0  0  0
 21 22  2  0  0  0
 21 23  1  0  0  0
 23 24  1  0  0  0
 23 25  1  0  0  0
M  END
> <minimizedAffinity>
-7.97354

$$$$
