CHEMBL101253


 26 29  0  0  0  0  0  0  0  0999 V2000
  -26.7053   -1.6777  -10.7972 C   0  0  0  0  0  0  0  0  0  0  0  0
  -25.5306   -1.6809  -10.1175 N   0  0  0  0  0  0  0  0  0  0  0  0
  -24.3330   -1.6108  -10.7633 N   0  0  0  0  0  0  0  0  0  0  0  0
  -24.2889   -1.6192  -12.1140 C   0  0  0  0  0  0  0  0  0  0  0  0
  -25.4682   -1.6830  -12.8887 C   0  0  0  0  0  0  0  0  0  0  0  0
  -25.4701   -1.7661  -14.3053 C   0  0  0  0  0  0  0  0  0  0  0  0
  -26.6511   -1.7391  -15.0393 C   0  0  0  0  0  0  0  0  0  0  0  0
  -27.8675   -1.6132  -14.3819 C   0  0  0  0  0  0  0  0  0  0  0  0
  -27.8980   -1.5948  -12.9869 C   0  0  0  0  0  0  0  0  0  0  0  0
  -26.7129   -1.6570  -12.2098 C   0  0  0  0  0  0  0  0  0  0  0  0
  -27.9045   -1.8902  -10.0640 N   0  0  0  0  0  0  0  0  0  0  0  0
  -28.5978   -1.1959  -10.3094 H   0  0  0  0  0  0  0  0  0  0  0  0
  -28.2907   -2.6949   -4.1960 Cl  0  0  0  0  0  0  0  0  0  0  0  0
  -28.1901   -2.4484   -5.8952 C   0  0  0  0  0  0  0  0  0  0  0  0
  -27.8320   -1.1984   -6.3918 C   0  0  0  0  0  0  0  0  0  0  0  0
  -27.7250   -1.0077   -7.7704 C   0  0  0  0  0  0  0  0  0  0  0  0
  -27.9477   -2.0688   -8.6587 C   0  0  0  0  0  0  0  0  0  0  0  0
  -28.3659   -3.3020   -8.1465 C   0  0  0  0  0  0  0  0  0  0  0  0
  -28.4684   -3.4991   -6.7668 C   0  0  0  0  0  0  0  0  0  0  0  0
  -22.9032   -1.4151  -12.6857 C   0  0  0  0  0  0  0  0  0  0  0  0
  -22.7079   -0.0188  -13.2377 C   0  0  0  0  0  0  0  0  0  0  0  0
  -21.6297    0.2694  -14.0829 C   0  0  0  0  0  0  0  0  0  0  0  0
  -21.4318    1.5752  -14.5008 C   0  0  0  0  0  0  0  0  0  0  0  0
  -22.2378    2.6015  -14.1526 N   0  0  0  0  0  0  0  0  0  0  0  0
  -23.2876    2.3024  -13.3600 C   0  0  0  0  0  0  0  0  0  0  0  0
  -23.5665    1.0272  -12.8878 C   0  0  0  0  0  0  0  0  0  0  0  0
 13 14  1  0  0  0
 14 15  1  0  0  0
 14 19  2  0  0  0
 15 16  2  0  0  0
 16 17  1  0  0  0
 17 11  1  0  0  0
 17 18  2  0  0  0
 11  1  1  0  0  0
 11 12  1  0  0  0
  1  2  1  0  0  0
  1 10  2  0  0  0
  2  3  2  0  0  0
  3  4  1  0  0  0
  4 20  1  0  0  0
  4  5  2  0  0  0
 20 21  1  0  0  0
 21 22  1  0  0  0
 21 26  2  0  0  0
 22 23  2  0  0  0
 23 24  1  0  0  0
 24 25  2  0  0  0
 25 26  1  0  0  0
  5  6  1  0  0  0
  5 10  1  0  0  0
  6  7  2  0  0  0
  7  8  1  0  0  0
  8  9  2  0  0  0
  9 10  1  0  0  0
 18 19  1  0  0  0
M  END
> <minimizedAffinity>
-9.07115

$$$$
