CHEMBL251739


 37 42  0  0  0  0  0  0  0  0999 V2000
  -18.0904    2.1227  -14.6741 C   0  0  0  0  0  0  0  0  0  0  0  0
  -17.8844    3.3310  -15.2336 N   0  0  0  0  0  0  0  0  0  0  0  0
  -19.1408    3.8034  -15.4068 N   0  0  0  0  0  0  0  0  0  0  0  0
  -20.1152    2.9714  -14.9387 C   0  0  0  0  0  0  0  0  0  0  0  0
  -21.4365    3.2163  -14.9153 N   0  0  0  0  0  0  0  0  0  0  0  0
  -22.1364    2.1998  -14.3349 C   0  0  0  0  0  0  0  0  0  0  0  0
  -21.6317    0.9805  -13.8479 C   0  0  0  0  0  0  0  0  0  0  0  0
  -20.2495    0.7844  -14.0056 C   0  0  0  0  0  0  0  0  0  0  0  0
  -19.4631    1.8358  -14.4987 C   0  0  0  0  0  0  0  0  0  0  0  0
  -19.2776    4.7101  -15.8355 H   0  0  0  0  0  0  0  0  0  0  0  0
  -15.1687   -1.7206  -13.4607 C   0  0  0  0  0  0  0  0  0  0  0  0
  -13.7692   -1.8608  -13.5823 C   0  0  0  0  0  0  0  0  0  0  0  0
  -12.9272   -0.7677  -13.7981 C   0  0  0  0  0  0  0  0  0  0  0  0
  -13.4486    0.5039  -14.0123 C   0  0  0  0  0  0  0  0  0  0  0  0
  -14.8373    0.6096  -14.0353 C   0  0  0  0  0  0  0  0  0  0  0  0
  -15.6495    1.6696  -14.3356 N   0  0  0  0  0  0  0  0  0  0  0  0
  -16.9499    1.2444  -14.2804 C   0  0  0  0  0  0  0  0  0  0  0  0
  -17.0202    0.0034  -13.8472 N   0  0  0  0  0  0  0  0  0  0  0  0
  -15.7125   -0.4454  -13.7540 C   0  0  0  0  0  0  0  0  0  0  0  0
  -15.3762    2.5945  -14.6312 H   0  0  0  0  0  0  0  0  0  0  0  0
  -16.2247   -3.3860  -11.8561 N   0  0  0  0  0  0  0  0  0  0  0  0
  -16.0623   -2.8808  -13.1719 C   0  0  0  0  0  0  0  0  0  0  0  0
  -16.6333   -3.4126  -14.1256 O   0  0  0  0  0  0  0  0  0  0  0  0
  -15.9942   -5.8502  -12.1538 C   0  0  0  0  0  0  0  0  0  0  0  0
  -16.8916   -4.6893  -11.7501 C   0  0  0  0  0  0  0  0  0  0  0  0
  -15.5951   -2.8306  -10.6513 C   0  0  0  0  0  0  0  0  0  0  0  0
  -14.2863   -3.4515  -10.1893 C   0  0  0  0  0  0  0  0  0  0  0  0
  -22.5063   -0.0471  -13.2227 C   0  0  0  0  0  0  0  0  0  0  0  0
  -22.2026   -0.5141  -11.9347 C   0  0  0  0  0  0  0  0  0  0  0  0
  -22.9225   -1.4123  -11.2276 N   0  0  0  0  0  0  0  0  0  0  0  0
  -24.0501   -1.8588  -11.8125 C   0  0  0  0  0  0  0  0  0  0  0  0
  -24.4887   -1.4845  -13.0805 C   0  0  0  0  0  0  0  0  0  0  0  0
  -25.7019   -1.9832  -13.5934 C   0  0  0  0  0  0  0  0  0  0  0  0
  -26.1482   -1.6145  -14.8590 C   0  0  0  0  0  0  0  0  0  0  0  0
  -25.3617   -0.7863  -15.6424 C   0  0  0  0  0  0  0  0  0  0  0  0
  -24.1434   -0.3102  -15.1488 C   0  0  0  0  0  0  0  0  0  0  0  0
  -23.6862   -0.5897  -13.8328 C   0  0  0  0  0  0  0  0  0  0  0  0
 24 25  1  0  0  0
 25 21  1  0  0  0
 21 26  1  0  0  0
 21 22  1  0  0  0
 26 27  1  0  0  0
 22 23  2  0  0  0
 22 11  1  0  0  0
 11 12  1  0  0  0
 11 19  2  0  0  0
 12 13  2  0  0  0
 13 14  1  0  0  0
 14 15  2  0  0  0
 15 16  1  0  0  0
 15 19  1  0  0  0
 16 17  1  0  0  0
 16 20  1  0  0  0
 17  1  1  0  0  0
 17 18  2  0  0  0
  1  2  2  0  0  0
  1  9  1  0  0  0
  2  3  1  0  0  0
  3  4  1  0  0  0
  3 10  1  0  0  0
  4  5  1  0  0  0
  4  9  2  0  0  0
  5  6  2  0  0  0
  6  7  1  0  0  0
  7 28  1  0  0  0
  7  8  2  0  0  0
 28 29  1  0  0  0
 28 37  2  0  0  0
 29 30  2  0  0  0
 30 31  1  0  0  0
 31 32  2  0  0  0
 32 33  1  0  0  0
 32 37  1  0  0  0
 33 34  2  0  0  0
 34 35  1  0  0  0
 35 36  2  0  0  0
 36 37  1  0  0  0
  8  9  1  0  0  0
 18 19  1  0  0  0
M  END
> <minimizedAffinity>
-9.62761

$$$$
