CHEMBL180603


 33 36  0  0  0  0  0  0  0  0999 V2000
  -30.3586   -6.1239   -5.4082 C   0  0  0  0  0  0  0  0  0  0  0  0
  -30.1869   -6.6212   -4.2132 N   0  0  0  0  0  0  0  0  0  0  0  0
  -29.3372   -6.0224   -3.3280 C   0  0  0  0  0  0  0  0  0  0  0  0
  -28.6343   -4.9578   -3.5344 N   0  0  0  0  0  0  0  0  0  0  0  0
  -28.7955   -4.4407   -4.7578 N   0  0  0  0  0  0  0  0  0  0  0  0
  -28.1657   -3.3205   -5.2035 C   0  0  0  0  0  0  0  0  0  0  0  0
  -28.5549   -3.0660   -6.5083 C   0  0  0  0  0  0  0  0  0  0  0  0
  -29.5101   -4.1004   -6.8459 C   0  0  0  0  0  0  0  0  0  0  0  0
  -30.2357   -4.2468   -8.1395 C   0  0  0  0  0  0  0  0  0  0  0  0
  -29.6094   -4.9360   -5.7333 C   0  0  0  0  0  0  0  0  0  0  0  0
  -28.0806   -1.9282   -7.3061 C   0  0  0  0  0  0  0  0  0  0  0  0
  -28.1269   -0.7685   -6.9146 O   0  0  0  0  0  0  0  0  0  0  0  0
  -27.5849   -2.2949   -8.5436 N   0  0  0  0  0  0  0  0  0  0  0  0
  -27.6926   -3.2576   -8.8296 H   0  0  0  0  0  0  0  0  0  0  0  0
  -26.9593   -1.3721   -9.4661 C   0  0  0  0  0  0  0  0  0  0  0  0
  -27.0149   -1.8608  -10.9116 C   0  0  0  0  0  0  0  0  0  0  0  0
  -26.4385   -0.8432  -11.8939 C   0  0  0  0  0  0  0  0  0  0  0  0
  -24.9910   -0.9082  -11.9534 N   0  0  0  0  0  0  0  0  0  0  0  0
  -24.2462    0.2029  -12.1310 N   0  0  0  0  0  0  0  0  0  0  0  0
  -23.0092   -0.3045  -12.1143 C   0  0  0  0  0  0  0  0  0  0  0  0
  -23.0665   -1.6922  -11.9319 C   0  0  0  0  0  0  0  0  0  0  0  0
  -24.3404   -2.0835  -11.8341 N   0  0  0  0  0  0  0  0  0  0  0  0
  -31.2143   -6.7554   -6.2926 N   0  0  0  0  0  0  0  0  0  0  0  0
  -32.1624   -6.9080   -5.9797 H   0  0  0  0  0  0  0  0  0  0  0  0
  -29.5136  -10.7901  -10.0052 C   0  0  0  0  0  0  0  0  0  0  0  0
  -29.9595   -9.7392   -9.0316 C   0  0  0  0  0  0  0  0  0  0  0  0
  -29.1009   -8.7000   -8.6534 C   0  0  0  0  0  0  0  0  0  0  0  0
  -29.5257   -7.7188   -7.7494 C   0  0  0  0  0  0  0  0  0  0  0  0
  -30.8075   -7.7701   -7.1896 C   0  0  0  0  0  0  0  0  0  0  0  0
  -31.6663   -8.8064   -7.5764 C   0  0  0  0  0  0  0  0  0  0  0  0
  -31.2433   -9.7746   -8.4855 C   0  0  0  0  0  0  0  0  0  0  0  0
  -32.0928  -10.7772   -8.8621 O   0  0  0  0  0  0  0  0  0  0  0  0
  -32.9267  -10.6760   -8.3744 H   0  0  0  0  0  0  0  0  0  0  0  0
 25 26  1  0  0  0
 26 27  1  0  0  0
 26 31  2  0  0  0
 27 28  2  0  0  0
 28 29  1  0  0  0
 29 23  1  0  0  0
 29 30  2  0  0  0
 23  1  1  0  0  0
 23 24  1  0  0  0
  1  2  2  0  0  0
  1 10  1  0  0  0
  2  3  1  0  0  0
  3  4  2  0  0  0
  4  5  1  0  0  0
  5  6  1  0  0  0
  5 10  1  0  0  0
  6  7  2  0  0  0
  7 11  1  0  0  0
  7  8  1  0  0  0
 11 12  2  0  0  0
 11 13  1  0  0  0
 13 15  1  0  0  0
 13 14  1  0  0  0
 15 16  1  0  0  0
 16 17  1  0  0  0
 17 18  1  0  0  0
 18 19  1  0  0  0
 18 22  1  0  0  0
 19 20  2  0  0  0
 20 21  1  0  0  0
 21 22  2  0  0  0
  8  9  1  0  0  0
  8 10  2  0  0  0
 30 31  1  0  0  0
 31 32  1  0  0  0
 32 33  1  0  0  0
M  END
> <minimizedAffinity>
-8.74538

$$$$
