CHEMBL3936087


 40 44  0  0  0  0  0  0  0  0999 V2000
  -27.9056   -1.9291   -8.7047 N   0  0  0  0  0  0  0  0  0  0  0  0
  -27.4264   -1.3724   -9.9465 C   0  0  0  0  0  0  0  0  0  0  0  0
  -28.2245   -1.6502  -11.0523 C   0  0  0  0  0  0  0  0  0  0  0  0
  -27.6617   -1.7480  -12.3076 C   0  0  0  0  0  0  0  0  0  0  0  0
  -26.3504   -1.4356  -12.5341 C   0  0  0  0  0  0  0  0  0  0  0  0
  -25.8944   -1.7861  -13.7318 N   0  0  0  0  0  0  0  0  0  0  0  0
  -24.6677   -1.3598  -14.0610 C   0  0  0  0  0  0  0  0  0  0  0  0
  -23.9631   -0.4893  -13.2523 C   0  0  0  0  0  0  0  0  0  0  0  0
  -24.3691   -0.2116  -11.9718 N   0  0  0  0  0  0  0  0  0  0  0  0
  -25.5682   -0.7676  -11.5365 C   0  0  0  0  0  0  0  0  0  0  0  0
  -26.1507   -0.8002  -10.2022 C   0  0  0  0  0  0  0  0  0  0  0  0
  -22.9041    0.2590  -13.9350 C   0  0  0  0  0  0  0  0  0  0  0  0
  -21.6540   -0.2166  -14.4155 C   0  0  0  0  0  0  0  0  0  0  0  0
  -20.7959    0.7688  -14.7108 N   0  0  0  0  0  0  0  0  0  0  0  0
  -21.4840    1.8828  -14.4104 N   0  0  0  0  0  0  0  0  0  0  0  0
  -20.9684    3.1811  -14.7790 C   0  0  0  0  0  0  0  0  0  0  0  0
  -22.6873    1.6219  -13.8103 C   0  0  0  0  0  0  0  0  0  0  0  0
  -28.8943    0.4800   -5.9992 C   0  0  0  0  0  0  0  0  0  0  0  0
  -28.5676   -0.2535   -4.8577 C   0  0  0  0  0  0  0  0  0  0  0  0
  -27.9530   -1.4945   -4.9833 C   0  0  0  0  0  0  0  0  0  0  0  0
  -27.6701   -2.0036   -6.2565 C   0  0  0  0  0  0  0  0  0  0  0  0
  -27.9954   -1.3137   -7.4317 C   0  0  0  0  0  0  0  0  0  0  0  0
  -28.5887   -0.0430   -7.2778 C   0  0  0  0  0  0  0  0  0  0  0  0
  -30.8838    1.7306   -6.4600 C   0  0  0  0  0  0  0  0  0  0  0  0
  -29.5402    1.6961   -5.9703 O   0  0  0  0  0  0  0  0  0  0  0  0
  -27.6051   -2.3236   -3.9503 O   0  0  0  0  0  0  0  0  0  0  0  0
  -28.6503   -2.7414   -3.0802 C   0  0  0  0  0  0  0  0  0  0  0  0
  -27.6109   -3.4255   -8.7092 C   0  0  0  0  0  0  0  0  0  0  0  0
  -28.7511   -4.3029   -8.1576 C   0  0  0  0  0  0  0  0  0  0  0  0
  -28.3695   -5.8093   -8.0062 C   0  0  0  0  0  0  0  0  0  0  0  0
  -28.5830   -6.4427   -6.6831 N   0  0  0  0  0  0  0  0  0  0  0  0
  -28.5136   -5.4673   -5.5865 C   0  0  0  0  0  0  0  0  0  0  0  0
  -28.7230   -6.1393   -4.2252 C   0  0  0  0  0  0  0  0  0  0  0  0
  -30.0534   -6.8953   -4.1367 C   0  0  0  0  0  0  0  0  0  0  0  0
  -30.1613   -7.8453   -5.3360 C   0  0  0  0  0  0  0  0  0  0  0  0
  -29.8953   -7.1340   -6.6701 C   0  0  0  0  0  0  0  0  0  0  0  0
  -31.2610   -5.9644   -4.0028 C   0  0  0  0  0  0  0  0  0  0  0  0
  -30.9846   -4.6951   -4.3722 F   0  0  0  0  0  0  0  0  0  0  0  0
  -32.3218   -6.3753   -4.7290 F   0  0  0  0  0  0  0  0  0  0  0  0
  -31.6664   -5.9158   -2.7106 F   0  0  0  0  0  0  0  0  0  0  0  0
 24 25  1  0  0  0
 25 18  1  0  0  0
 18 19  1  0  0  0
 18 23  2  0  0  0
 19 20  2  0  0  0
 20 26  1  0  0  0
 20 21  1  0  0  0
 26 27  1  0  0  0
 21 22  2  0  0  0
 22  1  1  0  0  0
 22 23  1  0  0  0
  1 28  1  0  0  0
  1  2  1  0  0  0
 28 29  1  0  0  0
 29 30  1  0  0  0
 30 31  1  0  0  0
 31 32  1  0  0  0
 31 36  1  0  0  0
 32 33  1  0  0  0
 33 34  1  0  0  0
 34 37  1  0  0  0
 34 35  1  0  0  0
 37 38  1  0  0  0
 37 39  1  0  0  0
 37 40  1  0  0  0
 35 36  1  0  0  0
  2  3  1  0  0  0
  2 11  2  0  0  0
  3  4  2  0  0  0
  4  5  1  0  0  0
  5  6  1  0  0  0
  5 10  2  0  0  0
  6  7  2  0  0  0
  7  8  1  0  0  0
  8 12  1  0  0  0
  8  9  2  0  0  0
 12 13  1  0  0  0
 12 17  2  0  0  0
 13 14  2  0  0  0
 14 15  1  0  0  0
 15 16  1  0  0  0
 15 17  1  0  0  0
  9 10  1  0  0  0
 10 11  1  0  0  0
M  END
> <minimizedAffinity>
-9.23265

$$$$
