CHEMBL176702


 31 34  0  0  0  0  0  0  0  0999 V2000
  -12.1713   -2.7708  -13.0056 N   0  0  0  0  0  0  0  0  0  0  0  0
  -12.4950   -1.5288  -13.5354 C   0  0  0  0  0  0  0  0  0  0  0  0
  -11.4425   -0.7551  -13.8605 N   0  0  0  0  0  0  0  0  0  0  0  0
  -11.6753    0.4498  -14.3966 C   0  0  0  0  0  0  0  0  0  0  0  0
  -12.8566    1.0006  -14.6831 N   0  0  0  0  0  0  0  0  0  0  0  0
  -13.8984    0.2118  -14.3429 C   0  0  0  0  0  0  0  0  0  0  0  0
  -13.8039   -1.0477  -13.7460 C   0  0  0  0  0  0  0  0  0  0  0  0
  -15.1478   -1.4987  -13.5087 C   0  0  0  0  0  0  0  0  0  0  0  0
  -15.9859   -0.4833  -13.9352 C   0  0  0  0  0  0  0  0  0  0  0  0
  -15.2392    0.5506  -14.4659 N   0  0  0  0  0  0  0  0  0  0  0  0
  -11.1840   -2.9575  -13.1406 H   0  0  0  0  0  0  0  0  0  0  0  0
  -12.7993   -3.5126  -13.2884 H   0  0  0  0  0  0  0  0  0  0  0  0
  -15.6784   -2.7271  -12.9161 C   0  0  0  0  0  0  0  0  0  0  0  0
  -16.1145   -3.7845  -13.7213 C   0  0  0  0  0  0  0  0  0  0  0  0
  -16.6696   -4.9377  -13.1595 C   0  0  0  0  0  0  0  0  0  0  0  0
  -16.7318   -5.0779  -11.7761 C   0  0  0  0  0  0  0  0  0  0  0  0
  -16.2528   -4.0608  -10.9567 C   0  0  0  0  0  0  0  0  0  0  0  0
  -15.7461   -2.8859  -11.5221 C   0  0  0  0  0  0  0  0  0  0  0  0
  -15.7823    1.7447  -15.0243 C   0  0  0  0  0  0  0  0  0  0  0  0
  -14.9268    2.7599  -15.4790 C   0  0  0  0  0  0  0  0  0  0  0  0
  -15.4595    3.9188  -16.0433 C   0  0  0  0  0  0  0  0  0  0  0  0
  -16.8400    4.0964  -16.1195 C   0  0  0  0  0  0  0  0  0  0  0  0
  -17.7124    3.1057  -15.6364 C   0  0  0  0  0  0  0  0  0  0  0  0
  -17.1706    1.9249  -15.1062 C   0  0  0  0  0  0  0  0  0  0  0  0
  -19.2045    3.3216  -15.6532 C   0  0  0  0  0  0  0  0  0  0  0  0
  -19.7020    3.7061  -14.3291 N   0  0  0  0  0  0  0  0  0  0  0  0
  -19.8252    4.7191  -14.3412 H   0  0  0  0  0  0  0  0  0  0  0  0
  -21.0022    3.0707  -14.0671 C   0  0  0  0  0  0  0  0  0  0  0  0
  -21.0308    1.6392  -14.6122 C   0  0  0  0  0  0  0  0  0  0  0  0
  -21.5726    0.7458  -13.6433 O   0  0  0  0  0  0  0  0  0  0  0  0
  -20.9144    0.7030  -12.9275 H   0  0  0  0  0  0  0  0  0  0  0  0
  1  2  1  0  0  0
  1 11  1  0  0  0
  1 12  1  0  0  0
  2  3  1  0  0  0
  2  7  2  0  0  0
  3  4  2  0  0  0
  4  5  1  0  0  0
  5  6  2  0  0  0
  6  7  1  0  0  0
  6 10  1  0  0  0
  7  8  1  0  0  0
  8 13  1  0  0  0
  8  9  2  0  0  0
 13 14  1  0  0  0
 13 18  2  0  0  0
 14 15  2  0  0  0
 15 16  1  0  0  0
 16 17  2  0  0  0
 17 18  1  0  0  0
  9 10  1  0  0  0
 10 19  1  0  0  0
 19 20  1  0  0  0
 19 24  2  0  0  0
 20 21  2  0  0  0
 21 22  1  0  0  0
 22 23  2  0  0  0
 23 25  1  0  0  0
 23 24  1  0  0  0
 25 26  1  0  0  0
 26 28  1  0  0  0
 26 27  1  0  0  0
 28 29  1  0  0  0
 29 30  1  0  0  0
 30 31  1  0  0  0
M  END
> <minimizedAffinity>
-8.16298

$$$$
