CHEMBL1999918


 23 25  0  0  0  0  0  0  0  0999 V2000
  -28.6856   -3.1742   -7.0713 C   0  0  0  0  0  0  0  0  0  0  0  0
  -29.2063   -4.4538   -7.1031 C   0  0  0  0  0  0  0  0  0  0  0  0
  -29.9603   -4.8250   -5.9259 C   0  0  0  0  0  0  0  0  0  0  0  0
  -30.5932   -6.0426   -5.5228 C   0  0  0  0  0  0  0  0  0  0  0  0
  -31.2950   -5.9671   -4.3097 C   0  0  0  0  0  0  0  0  0  0  0  0
  -31.4078   -4.8816   -3.5166 N   0  0  0  0  0  0  0  0  0  0  0  0
  -30.7863   -3.7512   -3.8895 C   0  0  0  0  0  0  0  0  0  0  0  0
  -30.0568   -3.7127   -5.0766 C   0  0  0  0  0  0  0  0  0  0  0  0
  -29.1788   -2.3558   -5.6649 S   0  0  0  0  0  0  0  0  0  0  0  0
  -30.5006   -7.3122   -6.2881 C   0  0  0  0  0  0  0  0  0  0  0  0
  -31.5667   -7.7957   -7.0732 C   0  0  0  0  0  0  0  0  0  0  0  0
  -31.4602   -8.9738   -7.8284 C   0  0  0  0  0  0  0  0  0  0  0  0
  -30.2601   -9.6768   -7.8552 C   0  0  0  0  0  0  0  0  0  0  0  0
  -30.1109  -11.2301   -8.9209 Br  0  0  0  0  0  0  0  0  0  0  0  0
  -29.1831   -9.2167   -7.1124 C   0  0  0  0  0  0  0  0  0  0  0  0
  -28.0055   -9.8597   -7.1456 F   0  0  0  0  0  0  0  0  0  0  0  0
  -29.3087   -8.0664   -6.3322 C   0  0  0  0  0  0  0  0  0  0  0  0
  -28.2378   -7.6787   -5.6204 F   0  0  0  0  0  0  0  0  0  0  0  0
  -27.5025   -3.3186   -9.1648 N   0  0  0  0  0  0  0  0  0  0  0  0
  -27.8332   -2.5572   -8.0761 C   0  0  0  0  0  0  0  0  0  0  0  0
  -27.4199   -1.4050   -8.0028 O   0  0  0  0  0  0  0  0  0  0  0  0
  -26.9242   -2.8980   -9.8780 H   0  0  0  0  0  0  0  0  0  0  0  0
  -27.8356   -4.2649   -9.2826 H   0  0  0  0  0  0  0  0  0  0  0  0
 19 20  1  0  0  0
 19 22  1  0  0  0
 19 23  1  0  0  0
 20 21  2  0  0  0
 20  1  1  0  0  0
  1  2  2  0  0  0
  1  9  1  0  0  0
  2  3  1  0  0  0
  3  4  1  0  0  0
  3  8  2  0  0  0
  4 10  1  0  0  0
  4  5  2  0  0  0
 10 11  1  0  0  0
 10 17  2  0  0  0
 11 12  2  0  0  0
 12 13  1  0  0  0
 13 14  1  0  0  0
 13 15  2  0  0  0
 15 16  1  0  0  0
 15 17  1  0  0  0
 17 18  1  0  0  0
  5  6  1  0  0  0
  6  7  2  0  0  0
  7  8  1  0  0  0
  8  9  1  0  0  0
M  END
> <minimizedAffinity>
-7.85110

$$$$
