CHEMBL3740713


 43 48  0  0  0  0  0  0  0  0999 V2000
  -16.7927    0.7194  -14.8036 N   0  0  0  0  0  0  0  0  0  0  0  0
  -15.7935    0.9966  -15.6976 C   0  0  0  0  0  0  0  0  0  0  0  0
  -14.6666    0.3372  -15.2703 C   0  0  0  0  0  0  0  0  0  0  0  0
  -15.1412   -0.5396  -14.2490 C   0  0  0  0  0  0  0  0  0  0  0  0
  -16.4020   -0.2160  -13.8847 N   0  0  0  0  0  0  0  0  0  0  0  0
  -21.9547    3.2008  -14.6181 C   0  0  0  0  0  0  0  0  0  0  0  0
  -20.6029    2.5578  -14.6699 C   0  0  0  0  0  0  0  0  0  0  0  0
  -19.4564    3.2856  -14.3487 C   0  0  0  0  0  0  0  0  0  0  0  0
  -18.2023    2.6909  -14.3957 C   0  0  0  0  0  0  0  0  0  0  0  0
  -18.0703    1.3423  -14.7714 C   0  0  0  0  0  0  0  0  0  0  0  0
  -19.2163    0.6004  -15.0809 C   0  0  0  0  0  0  0  0  0  0  0  0
  -20.4737    1.2084  -15.0259 C   0  0  0  0  0  0  0  0  0  0  0  0
  -14.3909   -1.6757  -13.6751 C   0  0  0  0  0  0  0  0  0  0  0  0
  -13.4352   -1.4746  -12.9370 O   0  0  0  0  0  0  0  0  0  0  0  0
  -14.7897   -2.9460  -14.0715 N   0  0  0  0  0  0  0  0  0  0  0  0
  -15.3899   -2.9899  -14.8870 H   0  0  0  0  0  0  0  0  0  0  0  0
  -14.2039   -4.1351  -13.5646 C   0  0  0  0  0  0  0  0  0  0  0  0
  -13.0976   -4.7501  -14.1712 C   0  0  0  0  0  0  0  0  0  0  0  0
  -12.6072   -5.9752  -13.7153 C   0  0  0  0  0  0  0  0  0  0  0  0
  -13.2009   -6.5921  -12.6214 C   0  0  0  0  0  0  0  0  0  0  0  0
  -14.2627   -5.9629  -11.9691 C   0  0  0  0  0  0  0  0  0  0  0  0
  -14.7541   -4.7330  -12.4299 C   0  0  0  0  0  0  0  0  0  0  0  0
  -13.3327    0.4476  -15.8311 C   0  0  0  0  0  0  0  0  0  0  0  0
  -12.9521   -0.3863  -16.6366 O   0  0  0  0  0  0  0  0  0  0  0  0
  -12.4647    1.5753  -15.4037 C   0  0  0  0  0  0  0  0  0  0  0  0
  -11.3865    1.5516  -14.5131 C   0  0  0  0  0  0  0  0  0  0  0  0
  -10.6977    0.4794  -13.7345 C   0  0  0  0  0  0  0  0  0  0  0  0
  -10.9231    2.8389  -14.3866 N   0  0  0  0  0  0  0  0  0  0  0  0
  -11.6125    3.7126  -15.1884 C   0  0  0  0  0  0  0  0  0  0  0  0
  -12.5574    2.9533  -15.8875 C   0  0  0  0  0  0  0  0  0  0  0  0
  -10.1572    3.1138  -13.7863 H   0  0  0  0  0  0  0  0  0  0  0  0
  -11.3118    5.1550  -15.1701 C   0  0  0  0  0  0  0  0  0  0  0  0
  -11.2634    5.8945  -16.3617 C   0  0  0  0  0  0  0  0  0  0  0  0
  -11.2376    7.2899  -16.3354 C   0  0  0  0  0  0  0  0  0  0  0  0
  -11.1773    7.9627  -15.1184 C   0  0  0  0  0  0  0  0  0  0  0  0
  -11.1207    7.2396  -13.9296 C   0  0  0  0  0  0  0  0  0  0  0  0
  -11.1906    5.8430  -13.9542 C   0  0  0  0  0  0  0  0  0  0  0  0
  -13.5008    3.5259  -16.8701 C   0  0  0  0  0  0  0  0  0  0  0  0
  -14.6309    4.2402  -16.4504 C   0  0  0  0  0  0  0  0  0  0  0  0
  -15.4818    4.8654  -17.3667 C   0  0  0  0  0  0  0  0  0  0  0  0
  -15.2943    4.6721  -18.7291 C   0  0  0  0  0  0  0  0  0  0  0  0
  -14.2324    3.8895  -19.1704 C   0  0  0  0  0  0  0  0  0  0  0  0
  -13.3150    3.3673  -18.2517 C   0  0  0  0  0  0  0  0  0  0  0  0
  6  7  1  0  0  0
  7  8  1  0  0  0
  7 12  2  0  0  0
  8  9  2  0  0  0
  9 10  1  0  0  0
 10  1  1  0  0  0
 10 11  2  0  0  0
  1  2  1  0  0  0
  1  5  1  0  0  0
  2  3  2  0  0  0
  3 23  1  0  0  0
  3  4  1  0  0  0
 23 24  2  0  0  0
 23 25  1  0  0  0
 25 26  2  0  0  0
 25 30  1  0  0  0
 26 27  1  0  0  0
 26 28  1  0  0  0
 28 29  1  0  0  0
 28 31  1  0  0  0
 29 32  1  0  0  0
 29 30  2  0  0  0
 32 33  1  0  0  0
 32 37  2  0  0  0
 33 34  2  0  0  0
 34 35  1  0  0  0
 35 36  2  0  0  0
 36 37  1  0  0  0
 30 38  1  0  0  0
 38 39  1  0  0  0
 38 43  2  0  0  0
 39 40  2  0  0  0
 40 41  1  0  0  0
 41 42  2  0  0  0
 42 43  1  0  0  0
  4 13  1  0  0  0
  4  5  2  0  0  0
 13 14  2  0  0  0
 13 15  1  0  0  0
 15 17  1  0  0  0
 15 16  1  0  0  0
 17 18  1  0  0  0
 17 22  2  0  0  0
 18 19  2  0  0  0
 19 20  1  0  0  0
 20 21  2  0  0  0
 21 22  1  0  0  0
 11 12  1  0  0  0
M  END
> <minimizedAffinity>
-8.46426

$$$$
