CHEMBL1202477


 33 36  0  0  0  0  0  0  0  0999 V2000
  -12.6287   -3.0366  -14.8514 C   0  0  0  0  0  0  0  0  0  0  0  0
  -13.3646   -1.8789  -15.2519 C   0  0  0  0  0  0  0  0  0  0  0  0
  -13.2233   -0.6501  -14.5733 C   0  0  0  0  0  0  0  0  0  0  0  0
  -13.9698    0.5203  -14.8703 C   0  0  0  0  0  0  0  0  0  0  0  0
  -13.7397    1.6462  -14.1380 N   0  0  0  0  0  0  0  0  0  0  0  0
  -12.8284    1.6931  -13.1421 C   0  0  0  0  0  0  0  0  0  0  0  0
  -12.1325    0.5850  -12.8255 N   0  0  0  0  0  0  0  0  0  0  0  0
  -12.3160   -0.5716  -13.5060 C   0  0  0  0  0  0  0  0  0  0  0  0
  -11.6100   -1.6799  -13.0992 C   0  0  0  0  0  0  0  0  0  0  0  0
  -11.7519   -2.9375  -13.7257 C   0  0  0  0  0  0  0  0  0  0  0  0
  -13.8413   -5.1133  -15.4810 C   0  0  0  0  0  0  0  0  0  0  0  0
  -12.7590   -4.2407  -15.4955 O   0  0  0  0  0  0  0  0  0  0  0  0
  -14.9510    0.5885  -15.9058 N   0  0  0  0  0  0  0  0  0  0  0  0
  -14.7189    0.2610  -16.8539 H   0  0  0  0  0  0  0  0  0  0  0  0
  -16.2198    1.2107  -15.6782 C   0  0  0  0  0  0  0  0  0  0  0  0
  -16.4854    2.5072  -16.1728 C   0  0  0  0  0  0  0  0  0  0  0  0
  -17.7202    3.1159  -15.9585 C   0  0  0  0  0  0  0  0  0  0  0  0
  -18.7172    2.4416  -15.2549 C   0  0  0  0  0  0  0  0  0  0  0  0
  -20.4144    3.2743  -14.9886 Br  0  0  0  0  0  0  0  0  0  0  0  0
  -18.4677    1.1614  -14.7471 C   0  0  0  0  0  0  0  0  0  0  0  0
  -17.2208    0.5515  -14.9432 C   0  0  0  0  0  0  0  0  0  0  0  0
  -17.0046   -0.6943  -14.4515 F   0  0  0  0  0  0  0  0  0  0  0  0
  -11.0620   -4.0186  -13.2202 O   0  0  0  0  0  0  0  0  0  0  0  0
  -11.4285   -4.6020  -11.9989 C   0  0  0  0  0  0  0  0  0  0  0  0
  -12.4301   -5.7542  -12.0485 C   0  0  0  0  0  0  0  0  0  0  0  0
  -13.0809   -6.0645  -10.6908 C   0  0  0  0  0  0  0  0  0  0  0  0
  -14.3246   -5.3025  -10.4625 N   0  0  0  0  0  0  0  0  0  0  0  0
  -14.0320   -3.9303   -9.9939 C   0  0  0  0  0  0  0  0  0  0  0  0
  -15.3278   -3.1580   -9.7764 C   0  0  0  0  0  0  0  0  0  0  0  0
  -16.1268   -3.0863  -11.0104 N   0  0  0  0  0  0  0  0  0  0  0  0
  -15.5291   -2.1901  -12.0172 C   0  0  0  0  0  0  0  0  0  0  0  0
  -16.3970   -4.4442  -11.5268 C   0  0  0  0  0  0  0  0  0  0  0  0
  -15.1048   -5.2563  -11.7184 C   0  0  0  0  0  0  0  0  0  0  0  0
 11 12  1  0  0  0
 12  1  1  0  0  0
  1  2  1  0  0  0
  1 10  2  0  0  0
  2  3  2  0  0  0
  3  4  1  0  0  0
  3  8  1  0  0  0
  4 13  1  0  0  0
  4  5  2  0  0  0
 13 15  1  0  0  0
 13 14  1  0  0  0
 15 16  1  0  0  0
 15 21  2  0  0  0
 16 17  2  0  0  0
 17 18  1  0  0  0
 18 19  1  0  0  0
 18 20  2  0  0  0
 20 21  1  0  0  0
 21 22  1  0  0  0
  5  6  1  0  0  0
  6  7  2  0  0  0
  7  8  1  0  0  0
  8  9  2  0  0  0
  9 10  1  0  0  0
 10 23  1  0  0  0
 23 24  1  0  0  0
 24 25  1  0  0  0
 25 26  1  0  0  0
 26 27  1  0  0  0
 27 28  1  0  0  0
 27 33  1  0  0  0
 28 29  1  0  0  0
 29 30  1  0  0  0
 30 31  1  0  0  0
 30 32  1  0  0  0
 32 33  1  0  0  0
M  END
> <minimizedAffinity>
-7.17838

$$$$
