CHEMBL495330


 30 34  0  0  0  0  0  0  0  0999 V2000
  -27.1701   -1.8754   -9.8334 C   0  0  0  0  0  0  0  0  0  0  0  0
  -27.5853   -3.1454   -9.4242 C   0  0  0  0  0  0  0  0  0  0  0  0
  -28.2034   -3.3366   -8.1885 C   0  0  0  0  0  0  0  0  0  0  0  0
  -28.2999   -2.3116   -7.2196 C   0  0  0  0  0  0  0  0  0  0  0  0
  -28.7646   -2.4462   -5.8975 C   0  0  0  0  0  0  0  0  0  0  0  0
  -28.8617   -1.3721   -5.0654 N   0  0  0  0  0  0  0  0  0  0  0  0
  -28.4791   -0.1305   -5.4760 N   0  0  0  0  0  0  0  0  0  0  0  0
  -27.9993    0.0234   -6.7232 C   0  0  0  0  0  0  0  0  0  0  0  0
  -27.8965   -1.0258   -7.6280 C   0  0  0  0  0  0  0  0  0  0  0  0
  -27.3895   -0.8287   -8.9257 C   0  0  0  0  0  0  0  0  0  0  0  0
  -28.7679   -2.2600  -12.4671 C   0  0  0  0  0  0  0  0  0  0  0  0
  -27.3117   -1.8649  -12.4031 C   0  0  0  0  0  0  0  0  0  0  0  0
  -26.6504   -1.6770  -13.6349 C   0  0  0  0  0  0  0  0  0  0  0  0
  -25.3216   -1.2538  -13.6989 C   0  0  0  0  0  0  0  0  0  0  0  0
  -24.6182   -1.0176  -12.5226 C   0  0  0  0  0  0  0  0  0  0  0  0
  -25.2564   -1.2265  -11.2961 C   0  0  0  0  0  0  0  0  0  0  0  0
  -26.6012   -1.6626  -11.1922 C   0  0  0  0  0  0  0  0  0  0  0  0
  -23.2140   -0.5156  -12.5027 C   0  0  0  0  0  0  0  0  0  0  0  0
  -22.4471   -0.8955  -11.6190 O   0  0  0  0  0  0  0  0  0  0  0  0
  -22.8464    0.3340  -13.5293 N   0  0  0  0  0  0  0  0  0  0  0  0
  -23.4758    0.4665  -14.3081 H   0  0  0  0  0  0  0  0  0  0  0  0
  -21.5144    0.8363  -13.6404 C   0  0  0  0  0  0  0  0  0  0  0  0
  -21.2296    2.0772  -14.4386 C   0  0  0  0  0  0  0  0  0  0  0  0
  -20.7630    0.7424  -14.9409 C   0  0  0  0  0  0  0  0  0  0  0  0
  -29.1904   -3.7289   -5.2888 C   0  0  0  0  0  0  0  0  0  0  0  0
  -30.5499   -4.0780   -5.1522 C   0  0  0  0  0  0  0  0  0  0  0  0
  -30.9514   -5.2223   -4.4675 C   0  0  0  0  0  0  0  0  0  0  0  0
  -29.9924   -6.1067   -3.9925 C   0  0  0  0  0  0  0  0  0  0  0  0
  -28.6407   -5.8347   -4.1888 C   0  0  0  0  0  0  0  0  0  0  0  0
  -28.2415   -4.6537   -4.8174 C   0  0  0  0  0  0  0  0  0  0  0  0
 11 12  1  0  0  0
 12 13  1  0  0  0
 12 17  2  0  0  0
 13 14  2  0  0  0
 14 15  1  0  0  0
 15 18  1  0  0  0
 15 16  2  0  0  0
 18 19  2  0  0  0
 18 20  1  0  0  0
 20 22  1  0  0  0
 20 21  1  0  0  0
 22 23  1  0  0  0
 22 24  1  0  0  0
 23 24  1  0  0  0
 16 17  1  0  0  0
 17  1  1  0  0  0
  1  2  1  0  0  0
  1 10  2  0  0  0
  2  3  2  0  0  0
  3  4  1  0  0  0
  4  5  1  0  0  0
  4  9  2  0  0  0
  5 25  1  0  0  0
  5  6  2  0  0  0
 25 26  1  0  0  0
 25 30  2  0  0  0
 26 27  2  0  0  0
 27 28  1  0  0  0
 28 29  2  0  0  0
 29 30  1  0  0  0
  6  7  1  0  0  0
  7  8  2  0  0  0
  8  9  1  0  0  0
  9 10  1  0  0  0
M  END
> <minimizedAffinity>
-10.14850

$$$$
