CHEMBL380503


 33 37  0  0  0  0  0  0  0  0999 V2000
  -25.1289   10.6546  -16.2932 O   0  0  0  0  0  0  0  0  0  0  0  0
  -24.5193   11.5355  -15.7044 C   0  0  0  0  0  0  0  0  0  0  0  0
  -23.4585   12.2682  -16.2476 N   0  0  0  0  0  0  0  0  0  0  0  0
  -23.1257   13.0652  -15.7253 H   0  0  0  0  0  0  0  0  0  0  0  0
  -22.8681   12.0987  -17.5223 C   0  0  0  0  0  0  0  0  0  0  0  0
  -23.4463   12.5440  -18.7110 C   0  0  0  0  0  0  0  0  0  0  0  0
  -22.7557   12.4425  -19.9245 C   0  0  0  0  0  0  0  0  0  0  0  0
  -21.4569   11.9374  -19.9544 C   0  0  0  0  0  0  0  0  0  0  0  0
  -20.9189   11.3801  -18.7954 C   0  0  0  0  0  0  0  0  0  0  0  0
  -21.6217   11.4589  -17.5862 C   0  0  0  0  0  0  0  0  0  0  0  0
  -20.6734   11.9246  -21.0855 O   0  0  0  0  0  0  0  0  0  0  0  0
  -19.3444   11.5520  -20.9938 C   0  0  0  0  0  0  0  0  0  0  0  0
  -18.2721   12.4239  -20.7695 C   0  0  0  0  0  0  0  0  0  0  0  0
  -16.9611   11.9407  -20.7431 C   0  0  0  0  0  0  0  0  0  0  0  0
  -16.7159   10.5754  -20.8790 C   0  0  0  0  0  0  0  0  0  0  0  0
  -17.7836    9.6930  -21.0368 C   0  0  0  0  0  0  0  0  0  0  0  0
  -19.0912   10.1820  -21.0958 C   0  0  0  0  0  0  0  0  0  0  0  0
  -24.9206   11.8889  -14.2901 C   0  0  0  0  0  0  0  0  0  0  0  0
  -23.9605   11.7259  -13.2658 C   0  0  0  0  0  0  0  0  0  0  0  0
  -24.2498   12.0306  -11.9345 C   0  0  0  0  0  0  0  0  0  0  0  0
  -25.5035   12.5122  -11.5956 C   0  0  0  0  0  0  0  0  0  0  0  0
  -26.4796   12.6435  -12.5810 C   0  0  0  0  0  0  0  0  0  0  0  0
  -26.2306   12.3019  -13.9326 C   0  0  0  0  0  0  0  0  0  0  0  0
  -27.4373   12.3230  -14.8606 C   0  0  0  0  0  0  0  0  0  0  0  0
  -28.6647   11.7612  -14.2597 N   0  0  0  0  0  0  0  0  0  0  0  0
  -28.8893   10.3782  -14.2586 C   0  0  0  0  0  0  0  0  0  0  0  0
  -29.9150    9.7590  -13.6503 C   0  0  0  0  0  0  0  0  0  0  0  0
  -30.8585   10.6307  -12.9402 C   0  0  0  0  0  0  0  0  0  0  0  0
  -31.9410   10.3634  -12.2794 N   0  0  0  0  0  0  0  0  0  0  0  0
  -32.3587   11.6177  -11.8449 C   0  0  0  0  0  0  0  0  0  0  0  0
  -31.6215   12.6442  -12.1716 N   0  0  0  0  0  0  0  0  0  0  0  0
  -30.6218   12.0743  -12.9019 C   0  0  0  0  0  0  0  0  0  0  0  0
  -29.5564   12.5655  -13.5365 C   0  0  0  0  0  0  0  0  0  0  0  0
  1  2  2  0  0  0
  2  3  1  0  0  0
  2 18  1  0  0  0
  3  5  1  0  0  0
  3  4  1  0  0  0
  5  6  1  0  0  0
  5 10  2  0  0  0
  6  7  2  0  0  0
  7  8  1  0  0  0
  8 11  1  0  0  0
  8  9  2  0  0  0
 11 12  1  0  0  0
 12 13  1  0  0  0
 12 17  2  0  0  0
 13 14  2  0  0  0
 14 15  1  0  0  0
 15 16  2  0  0  0
 16 17  1  0  0  0
  9 10  1  0  0  0
 18 19  1  0  0  0
 18 23  2  0  0  0
 19 20  2  0  0  0
 20 21  1  0  0  0
 21 22  2  0  0  0
 22 23  1  0  0  0
 23 24  1  0  0  0
 24 25  1  0  0  0
 25 26  1  0  0  0
 25 33  1  0  0  0
 26 27  2  0  0  0
 27 28  1  0  0  0
 28 29  2  0  0  0
 28 32  1  0  0  0
 29 30  1  0  0  0
 30 31  2  0  0  0
 31 32  1  0  0  0
 32 33  2  0  0  0
M  END
> <minimizedAffinity>
-6.55765

$$$$
