CHEMBL148514


 33 36  0  0  0  0  0  0  0  0999 V2000
  -15.5065   -1.0623  -13.7696 C   0  0  0  0  0  0  0  0  0  0  0  0
  -14.2118   -0.7784  -14.2722 C   0  0  0  0  0  0  0  0  0  0  0  0
  -13.9223    0.4131  -14.9307 C   0  0  0  0  0  0  0  0  0  0  0  0
  -14.9468    1.3201  -15.1150 C   0  0  0  0  0  0  0  0  0  0  0  0
  -16.2307    1.0534  -14.6508 C   0  0  0  0  0  0  0  0  0  0  0  0
  -16.5303   -0.1080  -13.9674 C   0  0  0  0  0  0  0  0  0  0  0  0
  -17.0925    2.0949  -14.9903 N   0  0  0  0  0  0  0  0  0  0  0  0
  -16.4254    3.0930  -15.6975 C   0  0  0  0  0  0  0  0  0  0  0  0
  -16.9092    4.1024  -16.1755 O   0  0  0  0  0  0  0  0  0  0  0  0
  -14.9926    2.6381  -15.7566 C   0  0  0  0  0  0  0  0  0  0  0  0
  -13.8687    3.2068  -16.2053 C   0  0  0  0  0  0  0  0  0  0  0  0
  -18.0832    2.1264  -14.7995 H   0  0  0  0  0  0  0  0  0  0  0  0
  -13.6499    4.4834  -16.7661 C   0  0  0  0  0  0  0  0  0  0  0  0
  -13.0074    5.4924  -16.1021 N   0  0  0  0  0  0  0  0  0  0  0  0
  -12.9250    6.5957  -16.9120 C   0  0  0  0  0  0  0  0  0  0  0  0
  -13.5551    6.3180  -18.1101 C   0  0  0  0  0  0  0  0  0  0  0  0
  -14.0060    4.9629  -18.0252 C   0  0  0  0  0  0  0  0  0  0  0  0
  -14.7193    4.1769  -19.0785 C   0  0  0  0  0  0  0  0  0  0  0  0
  -12.6338    5.4303  -15.1583 H   0  0  0  0  0  0  0  0  0  0  0  0
  -13.7409    7.2590  -19.2603 C   0  0  0  0  0  0  0  0  0  0  0  0
  -15.0911    7.9669  -19.2379 C   0  0  0  0  0  0  0  0  0  0  0  0
  -15.7054    7.9753  -20.6148 C   0  0  0  0  0  0  0  0  0  0  0  0
  -15.9473    8.9664  -21.2802 O   0  0  0  0  0  0  0  0  0  0  0  0
  -15.9811    6.7251  -21.0608 O   0  0  0  0  0  0  0  0  0  0  0  0
  -15.7370    6.0241  -20.4252 H   0  0  0  0  0  0  0  0  0  0  0  0
  -15.7976   -3.5911  -10.9420 C   0  0  0  0  0  0  0  0  0  0  0  0
  -16.3339   -4.6866  -11.6111 C   0  0  0  0  0  0  0  0  0  0  0  0
  -16.5636   -4.6216  -12.9836 C   0  0  0  0  0  0  0  0  0  0  0  0
  -16.2714   -3.4553  -13.6909 C   0  0  0  0  0  0  0  0  0  0  0  0
  -15.7578   -2.3232  -13.0405 C   0  0  0  0  0  0  0  0  0  0  0  0
  -15.5070   -2.4291  -11.6593 C   0  0  0  0  0  0  0  0  0  0  0  0
  -14.2320   -3.9680   -9.2037 C   0  0  0  0  0  0  0  0  0  0  0  0
  -15.5191   -3.5183   -9.6053 O   0  0  0  0  0  0  0  0  0  0  0  0
 32 33  1  0  0  0
 33 26  1  0  0  0
 26 27  1  0  0  0
 26 31  2  0  0  0
 27 28  2  0  0  0
 28 29  1  0  0  0
 29 30  2  0  0  0
 30  1  1  0  0  0
 30 31  1  0  0  0
  1  2  1  0  0  0
  1  6  2  0  0  0
  2  3  2  0  0  0
  3  4  1  0  0  0
  4  5  2  0  0  0
  4 10  1  0  0  0
  5  6  1  0  0  0
  5  7  1  0  0  0
  7  8  1  0  0  0
  7 12  1  0  0  0
  8  9  2  0  0  0
  8 10  1  0  0  0
 10 11  2  0  0  0
 11 13  1  0  0  0
 13 14  1  0  0  0
 13 17  2  0  0  0
 14 15  1  0  0  0
 14 19  1  0  0  0
 15 16  2  0  0  0
 16 20  1  0  0  0
 16 17  1  0  0  0
 20 21  1  0  0  0
 21 22  1  0  0  0
 22 23  2  0  0  0
 22 24  1  0  0  0
 24 25  1  0  0  0
 17 18  1  0  0  0
M  END
> <minimizedAffinity>
-7.77373

$$$$
