CHEMBL2113191


 33 36  0  0  0  0  0  0  0  0999 V2000
  -12.6976    2.8458  -15.6276 C   0  0  0  0  0  0  0  0  0  0  0  0
  -12.7988    2.1213  -14.4190 C   0  0  0  0  0  0  0  0  0  0  0  0
  -13.9180    1.3850  -14.0491 C   0  0  0  0  0  0  0  0  0  0  0  0
  -13.9331    0.7700  -12.8619 N   0  0  0  0  0  0  0  0  0  0  0  0
  -15.0151    0.0372  -12.5848 C   0  0  0  0  0  0  0  0  0  0  0  0
  -16.0477   -0.1676  -13.4019 N   0  0  0  0  0  0  0  0  0  0  0  0
  -16.0734    0.5165  -14.5481 C   0  0  0  0  0  0  0  0  0  0  0  0
  -14.9913    1.3303  -14.9368 C   0  0  0  0  0  0  0  0  0  0  0  0
  -14.9252    2.0875  -16.1323 C   0  0  0  0  0  0  0  0  0  0  0  0
  -13.7895    2.8304  -16.5024 C   0  0  0  0  0  0  0  0  0  0  0  0
  -17.1959    0.4102  -15.3987 N   0  0  0  0  0  0  0  0  0  0  0  0
  -17.1685   -0.4446  -15.9422 H   0  0  0  0  0  0  0  0  0  0  0  0
  -18.4320    1.0591  -15.3683 C   0  0  0  0  0  0  0  0  0  0  0  0
  -18.4897    2.3990  -15.3268 C   0  0  0  0  0  0  0  0  0  0  0  0
  -19.7332    3.1486  -15.1318 C   0  0  0  0  0  0  0  0  0  0  0  0
  -19.7411    4.3590  -15.2623 O   0  0  0  0  0  0  0  0  0  0  0  0
  -20.9155    2.3770  -14.6920 C   0  0  0  0  0  0  0  0  0  0  0  0
  -22.2401    3.2814  -14.0392 Cl  0  0  0  0  0  0  0  0  0  0  0  0
  -20.9452    1.0411  -14.7682 C   0  0  0  0  0  0  0  0  0  0  0  0
  -19.7486    0.3147  -15.3087 C   0  0  0  0  0  0  0  0  0  0  0  0
  -19.8779   -0.8432  -15.6830 O   0  0  0  0  0  0  0  0  0  0  0  0
  -22.0760    0.3588  -14.3284 O   0  0  0  0  0  0  0  0  0  0  0  0
  -22.1697    0.0458  -12.9368 C   0  0  0  0  0  0  0  0  0  0  0  0
  -23.2035   -1.0256  -12.7879 C   0  0  0  0  0  0  0  0  0  0  0  0
  -24.3604   -0.8339  -11.8421 C   0  0  0  0  0  0  0  0  0  0  0  0
  -23.3004   -1.8540  -11.5325 C   0  0  0  0  0  0  0  0  0  0  0  0
  -14.0361    3.5191  -17.6545 O   0  0  0  0  0  0  0  0  0  0  0  0
  -14.1337    4.9336  -17.6702 C   0  0  0  0  0  0  0  0  0  0  0  0
  -11.4888    3.4910  -15.6917 O   0  0  0  0  0  0  0  0  0  0  0  0
  -11.1908    4.4339  -14.6856 C   0  0  0  0  0  0  0  0  0  0  0  0
  -10.8901    5.8237  -15.2240 C   0  0  0  0  0  0  0  0  0  0  0  0
  -11.9901    7.9293  -15.2472 C   0  0  0  0  0  0  0  0  0  0  0  0
  -12.1350    6.5255  -15.1597 O   0  0  0  0  0  0  0  0  0  0  0  0
 32 33  1  0  0  0
 33 31  1  0  0  0
 31 30  1  0  0  0
 30 29  1  0  0  0
 29  1  1  0  0  0
  1  2  1  0  0  0
  1 10  2  0  0  0
  2  3  2  0  0  0
  3  4  1  0  0  0
  3  8  1  0  0  0
  4  5  2  0  0  0
  5  6  1  0  0  0
  6  7  2  0  0  0
  7 11  1  0  0  0
  7  8  1  0  0  0
 11 13  1  0  0  0
 11 12  1  0  0  0
 13 14  2  0  0  0
 13 20  1  0  0  0
 14 15  1  0  0  0
 15 16  2  0  0  0
 15 17  1  0  0  0
 17 18  1  0  0  0
 17 19  2  0  0  0
 19 22  1  0  0  0
 19 20  1  0  0  0
 22 23  1  0  0  0
 23 24  1  0  0  0
 24 25  1  0  0  0
 24 26  1  0  0  0
 25 26  1  0  0  0
 20 21  2  0  0  0
  8  9  2  0  0  0
  9 10  1  0  0  0
 10 27  1  0  0  0
 27 28  1  0  0  0
M  END
> <minimizedAffinity>
-6.63726

$$$$
