CHEMBL301271


 34 37  0  0  0  0  0  0  0  0999 V2000
  -30.3504   -9.4265   -6.9717 C   0  0  0  0  0  0  0  0  0  0  0  0
  -29.6968  -10.0558   -5.8936 C   0  0  0  0  0  0  0  0  0  0  0  0
  -28.9194   -9.3027   -5.0146 C   0  0  0  0  0  0  0  0  0  0  0  0
  -28.8399   -7.9405   -5.2405 C   0  0  0  0  0  0  0  0  0  0  0  0
  -29.5088   -7.2916   -6.2876 C   0  0  0  0  0  0  0  0  0  0  0  0
  -30.2761   -8.0324   -7.1745 C   0  0  0  0  0  0  0  0  0  0  0  0
  -29.1765   -5.8574   -6.1470 C   0  0  0  0  0  0  0  0  0  0  0  0
  -29.6358   -4.8353   -6.8890 C   0  0  0  0  0  0  0  0  0  0  0  0
  -28.2301   -5.7458   -4.9750 C   0  0  0  0  0  0  0  0  0  0  0  0
  -27.6735   -4.7617   -4.5345 O   0  0  0  0  0  0  0  0  0  0  0  0
  -28.1035   -7.0351   -4.4889 N   0  0  0  0  0  0  0  0  0  0  0  0
  -27.5221   -7.2576   -3.6949 H   0  0  0  0  0  0  0  0  0  0  0  0
  -29.2711   -3.4768   -6.6689 C   0  0  0  0  0  0  0  0  0  0  0  0
  -29.8188   -2.8294   -5.5853 N   0  0  0  0  0  0  0  0  0  0  0  0
  -29.4088   -1.5281   -5.5749 C   0  0  0  0  0  0  0  0  0  0  0  0
  -28.5676   -1.3181   -6.6498 C   0  0  0  0  0  0  0  0  0  0  0  0
  -28.4568   -2.5680   -7.3480 C   0  0  0  0  0  0  0  0  0  0  0  0
  -27.9854    0.0356   -6.9290 C   0  0  0  0  0  0  0  0  0  0  0  0
  -28.1718    1.0157   -5.7535 C   0  0  0  0  0  0  0  0  0  0  0  0
  -29.5565    0.8966   -5.1017 C   0  0  0  0  0  0  0  0  0  0  0  0
  -29.7988   -0.5187   -4.5505 C   0  0  0  0  0  0  0  0  0  0  0  0
  -30.4309   -3.2535   -4.9008 H   0  0  0  0  0  0  0  0  0  0  0  0
  -27.6584   -2.8964   -8.5801 C   0  0  0  0  0  0  0  0  0  0  0  0
  -27.8483   -2.0118   -9.8033 C   0  0  0  0  0  0  0  0  0  0  0  0
  -26.7018   -1.8808  -10.7886 C   0  0  0  0  0  0  0  0  0  0  0  0
  -26.9364   -2.0547  -12.1127 N   0  0  0  0  0  0  0  0  0  0  0  0
  -25.5748   -1.5609  -10.4107 O   0  0  0  0  0  0  0  0  0  0  0  0
  -27.7105   -2.6110  -12.4751 H   0  0  0  0  0  0  0  0  0  0  0  0
  -26.1205   -2.0618  -12.7095 H   0  0  0  0  0  0  0  0  0  0  0  0
  -31.3192  -10.4483   -8.0727 S   0  0  0  0  0  0  0  0  0  0  0  0
  -30.4135  -10.9447   -9.0904 O   0  0  0  0  0  0  0  0  0  0  0  0
  -32.4919   -9.6730   -8.4228 O   0  0  0  0  0  0  0  0  0  0  0  0
  -33.1591  -11.5704   -6.3784 C   0  0  0  0  0  0  0  0  0  0  0  0
  -31.8272  -11.8296   -7.0584 C   0  0  0  0  0  0  0  0  0  0  0  0
 33 34  1  0  0  0
 34 30  1  0  0  0
 30 31  2  0  0  0
 30 32  2  0  0  0
 30  1  1  0  0  0
  1  2  1  0  0  0
  1  6  2  0  0  0
  2  3  2  0  0  0
  3  4  1  0  0  0
  4  5  2  0  0  0
  4 11  1  0  0  0
  5  6  1  0  0  0
  5  7  1  0  0  0
  7  8  2  0  0  0
  7  9  1  0  0  0
  8 13  1  0  0  0
 13 14  1  0  0  0
 13 17  2  0  0  0
 14 15  1  0  0  0
 14 22  1  0  0  0
 15 16  2  0  0  0
 15 21  1  0  0  0
 16 17  1  0  0  0
 16 18  1  0  0  0
 17 23  1  0  0  0
 23 24  1  0  0  0
 24 25  1  0  0  0
 25 26  1  0  0  0
 25 27  2  0  0  0
 26 28  1  0  0  0
 26 29  1  0  0  0
 18 19  1  0  0  0
 19 20  1  0  0  0
 20 21  1  0  0  0
  9 10  2  0  0  0
  9 11  1  0  0  0
 11 12  1  0  0  0
M  END
> <minimizedAffinity>
-9.28113

$$$$
