CHEMBL1271480


 32 36  0  0  0  0  0  0  0  0999 V2000
  -21.9842    1.5413  -13.9999 C   0  0  0  0  0  0  0  0  0  0  0  0
  -22.3837    2.8959  -14.0175 C   0  0  0  0  0  0  0  0  0  0  0  0
  -21.4416    3.7188  -14.4769 N   0  0  0  0  0  0  0  0  0  0  0  0
  -20.4019    2.9041  -14.7731 N   0  0  0  0  0  0  0  0  0  0  0  0
  -19.1603    3.2803  -15.2701 C   0  0  0  0  0  0  0  0  0  0  0  0
  -18.2176    2.3572  -15.5121 C   0  0  0  0  0  0  0  0  0  0  0  0
  -18.6242    0.9506  -15.2095 C   0  0  0  0  0  0  0  0  0  0  0  0
  -19.7757    0.5648  -14.7435 N   0  0  0  0  0  0  0  0  0  0  0  0
  -20.6959    1.5576  -14.5099 C   0  0  0  0  0  0  0  0  0  0  0  0
  -24.9080   -2.8065  -12.2730 O   0  0  0  0  0  0  0  0  0  0  0  0
  -24.2492   -1.8473  -12.6523 C   0  0  0  0  0  0  0  0  0  0  0  0
  -23.1680   -1.2732  -11.8193 C   0  0  0  0  0  0  0  0  0  0  0  0
  -22.4705   -0.2168  -12.2644 C   0  0  0  0  0  0  0  0  0  0  0  0
  -22.7434    0.4043  -13.5636 C   0  0  0  0  0  0  0  0  0  0  0  0
  -23.7245   -0.1478  -14.3039 C   0  0  0  0  0  0  0  0  0  0  0  0
  -24.4474   -1.2298  -13.8600 N   0  0  0  0  0  0  0  0  0  0  0  0
  -25.1814   -1.6190  -14.4396 H   0  0  0  0  0  0  0  0  0  0  0  0
  -16.8891    2.7005  -16.0063 C   0  0  0  0  0  0  0  0  0  0  0  0
  -16.5465    4.0408  -16.2044 C   0  0  0  0  0  0  0  0  0  0  0  0
  -15.2758    4.3793  -16.6745 C   0  0  0  0  0  0  0  0  0  0  0  0
  -14.3247    3.3848  -16.9227 C   0  0  0  0  0  0  0  0  0  0  0  0
  -14.6813    2.0451  -16.7679 C   0  0  0  0  0  0  0  0  0  0  0  0
  -15.9570    1.7017  -16.3075 C   0  0  0  0  0  0  0  0  0  0  0  0
  -13.0260    3.6196  -17.3050 O   0  0  0  0  0  0  0  0  0  0  0  0
  -12.3305    4.5469  -16.4611 C   0  0  0  0  0  0  0  0  0  0  0  0
  -12.5465    4.2080  -14.9773 C   0  0  0  0  0  0  0  0  0  0  0  0
  -11.5716    3.2279  -14.4533 N   0  0  0  0  0  0  0  0  0  0  0  0
  -12.1365    1.8580  -14.4360 C   0  0  0  0  0  0  0  0  0  0  0  0
  -13.1584    1.6194  -13.3085 C   0  0  0  0  0  0  0  0  0  0  0  0
  -12.6028    1.9210  -12.0221 O   0  0  0  0  0  0  0  0  0  0  0  0
  -12.1114    3.2652  -11.9767 C   0  0  0  0  0  0  0  0  0  0  0  0
  -11.0796    3.5189  -13.0869 C   0  0  0  0  0  0  0  0  0  0  0  0
 10 11  2  0  0  0
 11 12  1  0  0  0
 11 16  1  0  0  0
 12 13  2  0  0  0
 13 14  1  0  0  0
 14  1  1  0  0  0
 14 15  2  0  0  0
  1  2  1  0  0  0
  1  9  2  0  0  0
  2  3  2  0  0  0
  3  4  1  0  0  0
  4  5  1  0  0  0
  4  9  1  0  0  0
  5  6  2  0  0  0
  6 18  1  0  0  0
  6  7  1  0  0  0
 18 19  1  0  0  0
 18 23  2  0  0  0
 19 20  2  0  0  0
 20 21  1  0  0  0
 21 24  1  0  0  0
 21 22  2  0  0  0
 24 25  1  0  0  0
 25 26  1  0  0  0
 26 27  1  0  0  0
 27 28  1  0  0  0
 27 32  1  0  0  0
 28 29  1  0  0  0
 29 30  1  0  0  0
 30 31  1  0  0  0
 31 32  1  0  0  0
 22 23  1  0  0  0
  7  8  2  0  0  0
  8  9  1  0  0  0
 15 16  1  0  0  0
 16 17  1  0  0  0
M  END
> <minimizedAffinity>
-9.39296

$$$$
