CHEMBL94191


 22 24  0  0  0  0  0  0  0  0999 V2000
  -34.4974    9.6816  -12.1267 C   0  0  0  0  0  0  0  0  0  0  0  0
  -33.7712   10.2605  -11.0680 C   0  0  0  0  0  0  0  0  0  0  0  0
  -32.6371   11.0323  -11.2729 C   0  0  0  0  0  0  0  0  0  0  0  0
  -32.0722   11.6350  -10.2234 N   0  0  0  0  0  0  0  0  0  0  0  0
  -31.0237   12.4228  -10.4849 C   0  0  0  0  0  0  0  0  0  0  0  0
  -30.5000   12.6585  -11.6858 N   0  0  0  0  0  0  0  0  0  0  0  0
  -31.0650   12.0384  -12.7381 C   0  0  0  0  0  0  0  0  0  0  0  0
  -32.1602   11.1732  -12.5755 C   0  0  0  0  0  0  0  0  0  0  0  0
  -32.7971   10.4748  -13.6240 C   0  0  0  0  0  0  0  0  0  0  0  0
  -33.9727    9.7483  -13.4200 C   0  0  0  0  0  0  0  0  0  0  0  0
  -35.5976    7.6862  -11.4949 C   0  0  0  0  0  0  0  0  0  0  0  0
  -35.6949    9.0536  -11.9053 O   0  0  0  0  0  0  0  0  0  0  0  0
  -30.5790   12.2776  -14.0512 N   0  0  0  0  0  0  0  0  0  0  0  0
  -30.6920   13.2634  -14.2699 H   0  0  0  0  0  0  0  0  0  0  0  0
  -29.4186   11.7576  -14.6641 C   0  0  0  0  0  0  0  0  0  0  0  0
  -28.1302   12.0359  -14.1959 C   0  0  0  0  0  0  0  0  0  0  0  0
  -27.0040   11.4955  -14.8168 C   0  0  0  0  0  0  0  0  0  0  0  0
  -27.1554   10.6257  -15.8896 C   0  0  0  0  0  0  0  0  0  0  0  0
  -28.4306   10.2796  -16.3273 C   0  0  0  0  0  0  0  0  0  0  0  0
  -29.5562   10.8318  -15.7101 C   0  0  0  0  0  0  0  0  0  0  0  0
  -34.4402    9.2309  -14.5924 O   0  0  0  0  0  0  0  0  0  0  0  0
  -35.3383    9.9765  -15.3931 C   0  0  0  0  0  0  0  0  0  0  0  0
 11 12  1  0  0  0
 12  1  1  0  0  0
  1  2  1  0  0  0
  1 10  2  0  0  0
  2  3  2  0  0  0
  3  4  1  0  0  0
  3  8  1  0  0  0
  4  5  2  0  0  0
  5  6  1  0  0  0
  6  7  2  0  0  0
  7 13  1  0  0  0
  7  8  1  0  0  0
 13 15  1  0  0  0
 13 14  1  0  0  0
 15 16  1  0  0  0
 15 20  2  0  0  0
 16 17  2  0  0  0
 17 18  1  0  0  0
 18 19  2  0  0  0
 19 20  1  0  0  0
  8  9  2  0  0  0
  9 10  1  0  0  0
 10 21  1  0  0  0
 21 22  1  0  0  0
M  END
> <minimizedAffinity>
-5.03317

$$$$
