CHEMBL3985259


 31 35  0  0  0  0  0  0  0  0999 V2000
  -29.0380   -7.9808   -6.7728 C   0  0  0  0  0  0  0  0  0  0  0  0
  -28.3726   -8.2159   -5.5573 C   0  0  0  0  0  0  0  0  0  0  0  0
  -28.2654   -7.2302   -4.6064 C   0  0  0  0  0  0  0  0  0  0  0  0
  -28.6392   -5.9392   -4.8612 C   0  0  0  0  0  0  0  0  0  0  0  0
  -28.6385   -5.1523   -3.7877 N   0  0  0  0  0  0  0  0  0  0  0  0
  -28.7808   -3.8457   -4.0142 C   0  0  0  0  0  0  0  0  0  0  0  0
  -28.8394   -3.3310   -5.2947 C   0  0  0  0  0  0  0  0  0  0  0  0
  -28.9735   -4.1588   -6.3918 N   0  0  0  0  0  0  0  0  0  0  0  0
  -28.9395   -5.5241   -6.1786 C   0  0  0  0  0  0  0  0  0  0  0  0
  -29.1985   -6.6091   -7.1196 C   0  0  0  0  0  0  0  0  0  0  0  0
  -28.5456   -1.9091   -5.4133 C   0  0  0  0  0  0  0  0  0  0  0  0
  -27.6636   -1.1079   -4.6409 C   0  0  0  0  0  0  0  0  0  0  0  0
  -27.8293    0.2037   -4.8537 N   0  0  0  0  0  0  0  0  0  0  0  0
  -28.8208    0.2507   -5.7590 N   0  0  0  0  0  0  0  0  0  0  0  0
  -29.1242    1.4814   -6.4509 C   0  0  0  0  0  0  0  0  0  0  0  0
  -29.3829   -0.9728   -5.9994 C   0  0  0  0  0  0  0  0  0  0  0  0
  -29.6034   -9.1939   -7.3928 N   0  0  0  0  0  0  0  0  0  0  0  0
  -27.3915  -11.6165   -9.2471 C   0  0  0  0  0  0  0  0  0  0  0  0
  -27.7988  -11.4363  -10.5690 C   0  0  0  0  0  0  0  0  0  0  0  0
  -28.8156  -10.5342  -10.8647 C   0  0  0  0  0  0  0  0  0  0  0  0
  -29.4233   -9.8177   -9.8123 C   0  0  0  0  0  0  0  0  0  0  0  0
  -29.0219   -9.9719   -8.4539 C   0  0  0  0  0  0  0  0  0  0  0  0
  -27.9825  -10.8683   -8.2207 C   0  0  0  0  0  0  0  0  0  0  0  0
  -25.2783  -11.8845   -8.1880 C   0  0  0  0  0  0  0  0  0  0  0  0
  -26.4068  -12.4609   -8.8191 O   0  0  0  0  0  0  0  0  0  0  0  0
  -29.2937  -10.2689  -12.1231 O   0  0  0  0  0  0  0  0  0  0  0  0
  -28.3513   -9.8170  -13.0994 C   0  0  0  0  0  0  0  0  0  0  0  0
  -30.9884   -9.5009   -6.8912 C   0  0  0  0  0  0  0  0  0  0  0  0
  -31.5522  -10.9029   -7.1704 C   0  0  0  0  0  0  0  0  0  0  0  0
  -32.8345  -10.3389   -7.5516 O   0  0  0  0  0  0  0  0  0  0  0  0
  -32.2412   -9.0085   -7.6118 C   0  0  0  0  0  0  0  0  0  0  0  0
 24 25  1  0  0  0
 25 18  1  0  0  0
 18 19  1  0  0  0
 18 23  2  0  0  0
 19 20  2  0  0  0
 20 26  1  0  0  0
 20 21  1  0  0  0
 26 27  1  0  0  0
 21 22  2  0  0  0
 22 17  1  0  0  0
 22 23  1  0  0  0
 17  1  1  0  0  0
 17 28  1  0  0  0
  1  2  1  0  0  0
  1 10  2  0  0  0
  2  3  2  0  0  0
  3  4  1  0  0  0
  4  5  1  0  0  0
  4  9  2  0  0  0
  5  6  2  0  0  0
  6  7  1  0  0  0
  7 11  1  0  0  0
  7  8  2  0  0  0
 11 12  1  0  0  0
 11 16  2  0  0  0
 12 13  2  0  0  0
 13 14  1  0  0  0
 14 15  1  0  0  0
 14 16  1  0  0  0
  8  9  1  0  0  0
  9 10  1  0  0  0
 28 29  1  0  0  0
 28 31  1  0  0  0
 29 30  1  0  0  0
 30 31  1  0  0  0
M  END
> <minimizedAffinity>
-7.98272

$$$$
