CHEMBL233455


 29 32  0  0  0  0  0  0  0  0999 V2000
  -29.8642   -8.2622   -5.7657 N   0  0  0  0  0  0  0  0  0  0  0  0
  -30.5474   -8.8669   -5.3360 H   0  0  0  0  0  0  0  0  0  0  0  0
  -26.8814  -10.4570   -7.5611 C   0  0  0  0  0  0  0  0  0  0  0  0
  -27.0404  -10.3688   -6.1927 C   0  0  0  0  0  0  0  0  0  0  0  0
  -28.0161   -9.6666   -5.5807 N   0  0  0  0  0  0  0  0  0  0  0  0
  -28.8381   -8.9762   -6.3751 C   0  0  0  0  0  0  0  0  0  0  0  0
  -28.7431   -8.9896   -7.7157 N   0  0  0  0  0  0  0  0  0  0  0  0
  -27.7841   -9.7355   -8.3209 C   0  0  0  0  0  0  0  0  0  0  0  0
  -27.8680   -9.7185   -9.8064 C   0  0  0  0  0  0  0  0  0  0  0  0
  -26.8980   -9.1202  -10.6294 C   0  0  0  0  0  0  0  0  0  0  0  0
  -26.9862   -9.1739  -12.0260 C   0  0  0  0  0  0  0  0  0  0  0  0
  -28.0690   -9.7962  -12.6380 C   0  0  0  0  0  0  0  0  0  0  0  0
  -29.0690  -10.3580  -11.8539 C   0  0  0  0  0  0  0  0  0  0  0  0
  -28.9680  -10.3186  -10.4593 C   0  0  0  0  0  0  0  0  0  0  0  0
  -25.0026  -11.9517   -8.5158 N   0  0  0  0  0  0  0  0  0  0  0  0
  -25.8522  -11.2941   -8.0773 C   0  0  0  0  0  0  0  0  0  0  0  0
  -29.8696   -6.9170   -5.3765 C   0  0  0  0  0  0  0  0  0  0  0  0
  -28.6806   -6.1798   -5.4026 C   0  0  0  0  0  0  0  0  0  0  0  0
  -28.6340   -4.8781   -4.8882 C   0  0  0  0  0  0  0  0  0  0  0  0
  -29.7833   -4.2817   -4.3582 C   0  0  0  0  0  0  0  0  0  0  0  0
  -30.9825   -4.9994   -4.3703 C   0  0  0  0  0  0  0  0  0  0  0  0
  -31.0169   -6.3018   -4.8631 C   0  0  0  0  0  0  0  0  0  0  0  0
  -29.7418   -2.9388   -3.6688 C   0  0  0  0  0  0  0  0  0  0  0  0
  -28.4684   -2.1224   -3.9393 C   0  0  0  0  0  0  0  0  0  0  0  0
  -28.5649   -1.3354   -5.1835 N   0  0  0  0  0  0  0  0  0  0  0  0
  -27.5099   -0.3119   -5.2600 C   0  0  0  0  0  0  0  0  0  0  0  0
  -28.1873    0.9906   -4.8833 C   0  0  0  0  0  0  0  0  0  0  0  0
  -29.5486    0.8352   -5.5231 C   0  0  0  0  0  0  0  0  0  0  0  0
  -29.8594   -0.6379   -5.3182 C   0  0  0  0  0  0  0  0  0  0  0  0
 15 16  3  0  0  0
 16  3  1  0  0  0
  3  4  1  0  0  0
  3  8  2  0  0  0
  4  5  2  0  0  0
  5  6  1  0  0  0
  6  1  1  0  0  0
  6  7  2  0  0  0
  1 17  1  0  0  0
  1  2  1  0  0  0
 17 18  1  0  0  0
 17 22  2  0  0  0
 18 19  2  0  0  0
 19 20  1  0  0  0
 20 23  1  0  0  0
 20 21  2  0  0  0
 23 24  1  0  0  0
 24 25  1  0  0  0
 25 26  1  0  0  0
 25 29  1  0  0  0
 26 27  1  0  0  0
 27 28  1  0  0  0
 28 29  1  0  0  0
 21 22  1  0  0  0
  7  8  1  0  0  0
  8  9  1  0  0  0
  9 10  1  0  0  0
  9 14  2  0  0  0
 10 11  2  0  0  0
 11 12  1  0  0  0
 12 13  2  0  0  0
 13 14  1  0  0  0
M  END
> <minimizedAffinity>
-8.02817

$$$$
