CHEMBL491681


 31 34  0  0  0  0  0  0  0  0999 V2000
  -28.9345   -5.6967   -4.2778 N   0  0  0  0  0  0  0  0  0  0  0  0
  -27.9642   -6.5382   -4.7772 C   0  0  0  0  0  0  0  0  0  0  0  0
  -28.3596   -7.7952   -4.3796 C   0  0  0  0  0  0  0  0  0  0  0  0
  -29.4861   -7.6827   -3.6063 N   0  0  0  0  0  0  0  0  0  0  0  0
  -29.8246   -6.4050   -3.5447 N   0  0  0  0  0  0  0  0  0  0  0  0
  -29.3171   -1.5271   -4.8405 C   0  0  0  0  0  0  0  0  0  0  0  0
  -28.8028   -2.0280   -3.6528 C   0  0  0  0  0  0  0  0  0  0  0  0
  -28.6499   -3.4057   -3.4701 C   0  0  0  0  0  0  0  0  0  0  0  0
  -29.0691   -4.3010   -4.4647 C   0  0  0  0  0  0  0  0  0  0  0  0
  -29.6344   -3.7988   -5.6399 C   0  0  0  0  0  0  0  0  0  0  0  0
  -29.7545   -2.4204   -5.8220 C   0  0  0  0  0  0  0  0  0  0  0  0
  -29.4797   -0.2120   -5.1603 O   0  0  0  0  0  0  0  0  0  0  0  0
  -28.5537    1.5109   -6.4210 F   0  0  0  0  0  0  0  0  0  0  0  0
  -28.3528    0.5970   -5.4471 C   0  0  0  0  0  0  0  0  0  0  0  0
  -27.3101   -0.1901   -5.7955 F   0  0  0  0  0  0  0  0  0  0  0  0
  -28.0152    1.2719   -4.3259 F   0  0  0  0  0  0  0  0  0  0  0  0
  -27.7206   -9.0745   -4.6461 C   0  0  0  0  0  0  0  0  0  0  0  0
  -27.4589   -9.8708   -3.5085 C   0  0  0  0  0  0  0  0  0  0  0  0
  -26.9186  -11.1472   -3.6166 C   0  0  0  0  0  0  0  0  0  0  0  0
  -26.6150  -11.6490   -4.8697 C   0  0  0  0  0  0  0  0  0  0  0  0
  -26.8364  -10.8702   -6.0089 C   0  0  0  0  0  0  0  0  0  0  0  0
  -27.4265   -9.5860   -5.9404 C   0  0  0  0  0  0  0  0  0  0  0  0
  -27.5960   -8.8304   -7.1237 N   0  0  0  0  0  0  0  0  0  0  0  0
  -27.8828   -7.8796   -6.9149 H   0  0  0  0  0  0  0  0  0  0  0  0
  -28.4698   -9.3918   -8.1560 C   0  0  0  0  0  0  0  0  0  0  0  0
  -29.9072   -9.0578   -7.8486 C   0  0  0  0  0  0  0  0  0  0  0  0
  -30.9061  -10.0297   -7.9707 C   0  0  0  0  0  0  0  0  0  0  0  0
  -32.2132   -9.6787   -7.6759 C   0  0  0  0  0  0  0  0  0  0  0  0
  -32.5849   -8.4457   -7.2713 N   0  0  0  0  0  0  0  0  0  0  0  0
  -31.6056   -7.5257   -7.1471 C   0  0  0  0  0  0  0  0  0  0  0  0
  -30.2700   -7.7796   -7.4170 C   0  0  0  0  0  0  0  0  0  0  0  0
 13 14  1  0  0  0
 14 15  1  0  0  0
 14 16  1  0  0  0
 14 12  1  0  0  0
 12  6  1  0  0  0
  6  7  1  0  0  0
  6 11  2  0  0  0
  7  8  2  0  0  0
  8  9  1  0  0  0
  9  1  1  0  0  0
  9 10  2  0  0  0
  1  2  1  0  0  0
  1  5  1  0  0  0
  2  3  2  0  0  0
  3 17  1  0  0  0
  3  4  1  0  0  0
 17 18  1  0  0  0
 17 22  2  0  0  0
 18 19  2  0  0  0
 19 20  1  0  0  0
 20 21  2  0  0  0
 21 22  1  0  0  0
 22 23  1  0  0  0
 23 25  1  0  0  0
 23 24  1  0  0  0
 25 26  1  0  0  0
 26 27  1  0  0  0
 26 31  2  0  0  0
 27 28  2  0  0  0
 28 29  1  0  0  0
 29 30  2  0  0  0
 30 31  1  0  0  0
  4  5  2  0  0  0
 10 11  1  0  0  0
M  END
> <minimizedAffinity>
-8.64401

$$$$
