CHEMBL2386802


 47 51  0  0  0  0  0  0  0  0999 V2000
  -23.9360   -0.4004  -12.9935 C   0  0  0  0  0  0  0  0  0  0  0  0
  -24.1957   -0.5401  -11.6055 C   0  0  0  0  0  0  0  0  0  0  0  0
  -25.3058   -1.3371  -11.4926 C   0  0  0  0  0  0  0  0  0  0  0  0
  -25.6554   -1.6329  -12.7823 N   0  0  0  0  0  0  0  0  0  0  0  0
  -24.8511   -1.0819  -13.7043 N   0  0  0  0  0  0  0  0  0  0  0  0
  -26.4250   -2.2036  -13.1125 H   0  0  0  0  0  0  0  0  0  0  0  0
  -20.7125    1.8401  -14.7305 C   0  0  0  0  0  0  0  0  0  0  0  0
  -20.7285    0.4444  -14.8062 C   0  0  0  0  0  0  0  0  0  0  0  0
  -21.7817   -0.2815  -14.2462 C   0  0  0  0  0  0  0  0  0  0  0  0
  -22.8516    0.3699  -13.6105 C   0  0  0  0  0  0  0  0  0  0  0  0
  -22.8514    1.7695  -13.5749 C   0  0  0  0  0  0  0  0  0  0  0  0
  -21.7969    2.4974  -14.1359 C   0  0  0  0  0  0  0  0  0  0  0  0
  -19.5521    2.6147  -15.2919 C   0  0  0  0  0  0  0  0  0  0  0  0
  -15.9966    1.7557  -15.0962 N   0  0  0  0  0  0  0  0  0  0  0  0
  -17.1331    2.3721  -15.5221 C   0  0  0  0  0  0  0  0  0  0  0  0
  -17.0701    3.1943  -16.4345 O   0  0  0  0  0  0  0  0  0  0  0  0
  -18.2959    2.0482  -14.8971 N   0  0  0  0  0  0  0  0  0  0  0  0
  -15.1644    2.0363  -15.5936 H   0  0  0  0  0  0  0  0  0  0  0  0
  -18.2797    1.2667  -14.2465 H   0  0  0  0  0  0  0  0  0  0  0  0
  -15.5459   -1.1156  -13.0694 C   0  0  0  0  0  0  0  0  0  0  0  0
  -15.5046   -0.5356  -14.3173 C   0  0  0  0  0  0  0  0  0  0  0  0
  -15.8666    0.8126  -14.1000 C   0  0  0  0  0  0  0  0  0  0  0  0
  -16.0752    1.0395  -12.7984 N   0  0  0  0  0  0  0  0  0  0  0  0
  -15.8608   -0.1566  -12.1571 O   0  0  0  0  0  0  0  0  0  0  0  0
  -16.0238   -3.5165  -13.4526 C   0  0  0  0  0  0  0  0  0  0  0  0
  -15.3149   -2.5027  -12.5408 C   0  0  0  0  0  0  0  0  0  0  0  0
  -15.8732   -2.6196  -11.1110 C   0  0  0  0  0  0  0  0  0  0  0  0
  -13.8082   -2.8263  -12.4974 C   0  0  0  0  0  0  0  0  0  0  0  0
  -25.9512   -1.7650  -10.3381 N   0  0  0  0  0  0  0  0  0  0  0  0
  -27.3721   -1.6222  -10.1511 C   0  0  0  0  0  0  0  0  0  0  0  0
  -28.0940   -1.1673  -11.0237 O   0  0  0  0  0  0  0  0  0  0  0  0
  -25.3968   -2.2229   -9.6290 H   0  0  0  0  0  0  0  0  0  0  0  0
  -27.9437   -2.0735   -8.8663 C   0  0  0  0  0  0  0  0  0  0  0  0
  -28.6399   -3.2787   -8.7393 C   0  0  0  0  0  0  0  0  0  0  0  0
  -29.1179   -3.6671   -7.4856 C   0  0  0  0  0  0  0  0  0  0  0  0
  -28.8642   -2.8787   -6.3614 C   0  0  0  0  0  0  0  0  0  0  0  0
  -28.1946   -1.6644   -6.4980 C   0  0  0  0  0  0  0  0  0  0  0  0
  -27.7326   -1.2626   -7.7447 C   0  0  0  0  0  0  0  0  0  0  0  0
  -29.2413   -3.1827   -5.0885 O   0  0  0  0  0  0  0  0  0  0  0  0
  -30.0992   -4.3148   -4.9242 C   0  0  0  0  0  0  0  0  0  0  0  0
  -29.3233   -5.4088   -4.1792 C   0  0  0  0  0  0  0  0  0  0  0  0
  -29.9222   -6.7493   -4.3125 N   0  0  0  0  0  0  0  0  0  0  0  0
  -29.0562   -7.8327   -3.7947 C   0  0  0  0  0  0  0  0  0  0  0  0
  -27.7992   -8.0709   -4.6450 C   0  0  0  0  0  0  0  0  0  0  0  0
  -28.1455   -8.3688   -6.0023 O   0  0  0  0  0  0  0  0  0  0  0  0
  -28.9488   -7.3289   -6.5756 C   0  0  0  0  0  0  0  0  0  0  0  0
  -30.2099   -7.0562   -5.7347 C   0  0  0  0  0  0  0  0  0  0  0  0
 25 26  1  0  0  0
 26 27  1  0  0  0
 26 28  1  0  0  0
 26 20  1  0  0  0
 20 21  2  0  0  0
 20 24  1  0  0  0
 21 22  1  0  0  0
 22 14  1  0  0  0
 22 23  2  0  0  0
 14 15  1  0  0  0
 14 18  1  0  0  0
 15 16  2  0  0  0
 15 17  1  0  0  0
 17 13  1  0  0  0
 17 19  1  0  0  0
 13  7  1  0  0  0
  7  8  1  0  0  0
  7 12  2  0  0  0
  8  9  2  0  0  0
  9 10  1  0  0  0
 10  1  1  0  0  0
 10 11  2  0  0  0
  1  2  1  0  0  0
  1  5  2  0  0  0
  2  3  2  0  0  0
  3 29  1  0  0  0
  3  4  1  0  0  0
 29 30  1  0  0  0
 29 32  1  0  0  0
 30 31  2  0  0  0
 30 33  1  0  0  0
 33 34  1  0  0  0
 33 38  2  0  0  0
 34 35  2  0  0  0
 35 36  1  0  0  0
 36 39  1  0  0  0
 36 37  2  0  0  0
 39 40  1  0  0  0
 40 41  1  0  0  0
 41 42  1  0  0  0
 42 43  1  0  0  0
 42 47  1  0  0  0
 43 44  1  0  0  0
 44 45  1  0  0  0
 45 46  1  0  0  0
 46 47  1  0  0  0
 37 38  1  0  0  0
  4  5  1  0  0  0
  4  6  1  0  0  0
 11 12  1  0  0  0
 23 24  1  0  0  0
M  END
> <minimizedAffinity>
-11.39545

$$$$
