CHEMBL272824


 35 39  0  0  0  0  0  0  0  0999 V2000
  -14.6445    0.2205  -13.6426 C   0  0  0  0  0  0  0  0  0  0  0  0
  -15.8778    0.2082  -13.0056 C   0  0  0  0  0  0  0  0  0  0  0  0
  -16.9362    0.9226  -13.5592 C   0  0  0  0  0  0  0  0  0  0  0  0
  -16.7707    1.8696  -14.6113 C   0  0  0  0  0  0  0  0  0  0  0  0
  -17.7992    2.6557  -15.2104 C   0  0  0  0  0  0  0  0  0  0  0  0
  -17.4775    3.5414  -16.2628 C   0  0  0  0  0  0  0  0  0  0  0  0
  -16.1779    3.6543  -16.7346 C   0  0  0  0  0  0  0  0  0  0  0  0
  -15.1742    2.8810  -16.1722 C   0  0  0  0  0  0  0  0  0  0  0  0
  -15.4433    1.9884  -15.1275 C   0  0  0  0  0  0  0  0  0  0  0  0
  -14.4095    1.1707  -14.6551 C   0  0  0  0  0  0  0  0  0  0  0  0
  -19.2715    2.6124  -14.8994 C   0  0  0  0  0  0  0  0  0  0  0  0
  -19.8677    3.6886  -14.8914 O   0  0  0  0  0  0  0  0  0  0  0  0
  -19.8496    1.3933  -14.5945 N   0  0  0  0  0  0  0  0  0  0  0  0
  -19.2436    0.5890  -14.5253 H   0  0  0  0  0  0  0  0  0  0  0  0
  -21.2063    1.1600  -14.2614 C   0  0  0  0  0  0  0  0  0  0  0  0
  -22.1154    2.1688  -13.9221 C   0  0  0  0  0  0  0  0  0  0  0  0
  -23.4210    1.8558  -13.5314 C   0  0  0  0  0  0  0  0  0  0  0  0
  -23.8401    0.5300  -13.4945 C   0  0  0  0  0  0  0  0  0  0  0  0
  -22.9595   -0.4817  -13.8686 C   0  0  0  0  0  0  0  0  0  0  0  0
  -21.6506   -0.1678  -14.2500 C   0  0  0  0  0  0  0  0  0  0  0  0
  -13.6640   -0.7113  -13.4370 O   0  0  0  0  0  0  0  0  0  0  0  0
  -14.9440   -5.7433  -12.6797 C   0  0  0  0  0  0  0  0  0  0  0  0
  -14.4640   -5.5268  -13.9890 C   0  0  0  0  0  0  0  0  0  0  0  0
  -14.0466   -4.2902  -14.4553 C   0  0  0  0  0  0  0  0  0  0  0  0
  -13.4412   -4.2369  -15.6531 N   0  0  0  0  0  0  0  0  0  0  0  0
  -12.9847   -3.0451  -16.0843 C   0  0  0  0  0  0  0  0  0  0  0  0
  -13.0693   -1.8817  -15.3510 C   0  0  0  0  0  0  0  0  0  0  0  0
  -13.6850   -1.9336  -14.1031 C   0  0  0  0  0  0  0  0  0  0  0  0
  -14.2474   -3.1633  -13.6495 C   0  0  0  0  0  0  0  0  0  0  0  0
  -14.9533   -3.3696  -12.4431 C   0  0  0  0  0  0  0  0  0  0  0  0
  -15.1823   -4.6312  -11.8830 C   0  0  0  0  0  0  0  0  0  0  0  0
  -14.3015   -8.0191  -12.8073 C   0  0  0  0  0  0  0  0  0  0  0  0
  -15.1674   -7.0176  -12.2258 O   0  0  0  0  0  0  0  0  0  0  0  0
  -15.5352   -4.4822  -10.5753 O   0  0  0  0  0  0  0  0  0  0  0  0
  -14.7382   -3.7862   -9.6422 C   0  0  0  0  0  0  0  0  0  0  0  0
 32 33  1  0  0  0
 33 22  1  0  0  0
 22 23  1  0  0  0
 22 31  2  0  0  0
 23 24  2  0  0  0
 24 25  1  0  0  0
 24 29  1  0  0  0
 25 26  2  0  0  0
 26 27  1  0  0  0
 27 28  2  0  0  0
 28 21  1  0  0  0
 28 29  1  0  0  0
 21  1  1  0  0  0
  1  2  1  0  0  0
  1 10  2  0  0  0
  2  3  2  0  0  0
  3  4  1  0  0  0
  4  5  1  0  0  0
  4  9  2  0  0  0
  5 11  1  0  0  0
  5  6  2  0  0  0
 11 12  2  0  0  0
 11 13  1  0  0  0
 13 15  1  0  0  0
 13 14  1  0  0  0
 15 16  1  0  0  0
 15 20  2  0  0  0
 16 17  2  0  0  0
 17 18  1  0  0  0
 18 19  2  0  0  0
 19 20  1  0  0  0
  6  7  1  0  0  0
  7  8  2  0  0  0
  8  9  1  0  0  0
  9 10  1  0  0  0
 29 30  2  0  0  0
 30 31  1  0  0  0
 31 34  1  0  0  0
 34 35  1  0  0  0
M  END
> <minimizedAffinity>
-9.33751

$$$$
