CHEMBL3671559


 36 39  0  0  0  0  0  0  0  0999 V2000
  -13.9089   -2.2980  -13.3190 C   0  0  0  0  0  0  0  0  0  0  0  0
  -14.1795   -1.0054  -13.8139 C   0  0  0  0  0  0  0  0  0  0  0  0
  -13.7556   -0.6181  -15.1438 C   0  0  0  0  0  0  0  0  0  0  0  0
  -13.8429    0.6574  -15.8000 C   0  0  0  0  0  0  0  0  0  0  0  0
  -13.3376    0.8606  -17.0349 N   0  0  0  0  0  0  0  0  0  0  0  0
  -12.7548   -0.1634  -17.6480 C   0  0  0  0  0  0  0  0  0  0  0  0
  -12.6303   -1.3912  -17.1500 N   0  0  0  0  0  0  0  0  0  0  0  0
  -13.1077   -1.6043  -15.9227 C   0  0  0  0  0  0  0  0  0  0  0  0
  -12.9280   -2.8950  -15.4388 C   0  0  0  0  0  0  0  0  0  0  0  0
  -13.3147   -3.2577  -14.1557 C   0  0  0  0  0  0  0  0  0  0  0  0
  -15.2862   -2.9029  -11.2983 C   0  0  0  0  0  0  0  0  0  0  0  0
  -15.8689   -1.9752  -10.7308 O   0  0  0  0  0  0  0  0  0  0  0  0
  -14.1573   -2.7879  -12.0256 N   0  0  0  0  0  0  0  0  0  0  0  0
  -13.3165   -2.9443  -11.4761 H   0  0  0  0  0  0  0  0  0  0  0  0
  -16.6420   -4.9225  -11.6135 C   0  0  0  0  0  0  0  0  0  0  0  0
  -15.6026   -4.3198  -11.0213 C   0  0  0  0  0  0  0  0  0  0  0  0
  -14.4791    1.7866  -15.2023 N   0  0  0  0  0  0  0  0  0  0  0  0
  -14.1479    1.8701  -14.2412 H   0  0  0  0  0  0  0  0  0  0  0  0
  -15.8840    2.0168  -15.2348 C   0  0  0  0  0  0  0  0  0  0  0  0
  -16.8027    1.0008  -14.8688 C   0  0  0  0  0  0  0  0  0  0  0  0
  -18.1941    1.2174  -14.9149 C   0  0  0  0  0  0  0  0  0  0  0  0
  -18.6854    2.4432  -15.3554 C   0  0  0  0  0  0  0  0  0  0  0  0
  -20.5553    2.7395  -15.3714 Br  0  0  0  0  0  0  0  0  0  0  0  0
  -17.8174    3.4374  -15.7848 C   0  0  0  0  0  0  0  0  0  0  0  0
  -16.4377    3.2122  -15.7307 C   0  0  0  0  0  0  0  0  0  0  0  0
  -15.6047    4.1924  -16.1075 F   0  0  0  0  0  0  0  0  0  0  0  0
  -13.2593   -4.5534  -13.6659 O   0  0  0  0  0  0  0  0  0  0  0  0
  -13.3781   -5.6343  -14.6131 C   0  0  0  0  0  0  0  0  0  0  0  0
  -14.8379   -6.0730  -14.7349 C   0  0  0  0  0  0  0  0  0  0  0  0
  -15.2686   -7.3256  -13.9787 C   0  0  0  0  0  0  0  0  0  0  0  0
  -14.2102   -8.3823  -13.7053 C   0  0  0  0  0  0  0  0  0  0  0  0
  -12.8966   -7.8535  -13.3779 N   0  0  0  0  0  0  0  0  0  0  0  0
  -11.8946   -8.6840  -12.8515 C   0  0  0  0  0  0  0  0  0  0  0  0
  -12.2648  -10.0149  -12.2312 C   0  0  0  0  0  0  0  0  0  0  0  0
  -10.6998   -8.3757  -12.9091 O   0  0  0  0  0  0  0  0  0  0  0  0
  -12.3975   -6.7594  -14.2201 C   0  0  0  0  0  0  0  0  0  0  0  0
 15 16  2  0  0  0
 16 11  1  0  0  0
 11 12  2  0  0  0
 11 13  1  0  0  0
 13  1  1  0  0  0
 13 14  1  0  0  0
  1  2  1  0  0  0
  1 10  2  0  0  0
  2  3  2  0  0  0
  3  4  1  0  0  0
  3  8  1  0  0  0
  4 17  1  0  0  0
  4  5  2  0  0  0
 17 19  1  0  0  0
 17 18  1  0  0  0
 19 20  1  0  0  0
 19 25  2  0  0  0
 20 21  2  0  0  0
 21 22  1  0  0  0
 22 23  1  0  0  0
 22 24  2  0  0  0
 24 25  1  0  0  0
 25 26  1  0  0  0
  5  6  1  0  0  0
  6  7  2  0  0  0
  7  8  1  0  0  0
  8  9  2  0  0  0
  9 10  1  0  0  0
 10 27  1  0  0  0
 27 28  1  0  0  0
 28 29  1  0  0  0
 28 36  1  0  0  0
 29 30  1  0  0  0
 30 31  1  0  0  0
 31 32  1  0  0  0
 32 33  1  0  0  0
 32 36  1  0  0  0
 33 34  1  0  0  0
 33 35  2  0  0  0
M  END
> <minimizedAffinity>
-8.27327

$$$$
