CHEMBL1966514


 36 40  0  0  0  0  0  0  0  0999 V2000
  -22.5366   -0.1825  -13.8747 C   0  0  0  0  0  0  0  0  0  0  0  0
  -22.6512   -0.2793  -12.4821 C   0  0  0  0  0  0  0  0  0  0  0  0
  -23.8410   -0.6816  -11.8837 C   0  0  0  0  0  0  0  0  0  0  0  0
  -24.9750   -0.9379  -12.6507 C   0  0  0  0  0  0  0  0  0  0  0  0
  -24.8671   -0.8864  -14.0430 C   0  0  0  0  0  0  0  0  0  0  0  0
  -23.6472   -0.5339  -14.6496 C   0  0  0  0  0  0  0  0  0  0  0  0
  -22.3941    3.1536  -13.6810 N   0  0  0  0  0  0  0  0  0  0  0  0
  -21.1837    2.8875  -14.3042 C   0  0  0  0  0  0  0  0  0  0  0  0
  -20.4619    3.9885  -14.5885 N   0  0  0  0  0  0  0  0  0  0  0  0
  -19.2460    3.8731  -15.1496 C   0  0  0  0  0  0  0  0  0  0  0  0
  -18.6278    2.6755  -15.4624 C   0  0  0  0  0  0  0  0  0  0  0  0
  -19.3853    1.5170  -15.1804 C   0  0  0  0  0  0  0  0  0  0  0  0
  -18.9025   -0.1280  -15.4004 S   0  0  0  0  0  0  0  0  0  0  0  0
  -20.3916   -0.7297  -14.8999 C   0  0  0  0  0  0  0  0  0  0  0  0
  -21.2569    0.2494  -14.4519 C   0  0  0  0  0  0  0  0  0  0  0  0
  -20.6819    1.5930  -14.6169 C   0  0  0  0  0  0  0  0  0  0  0  0
  -22.3966    4.1231  -13.3869 H   0  0  0  0  0  0  0  0  0  0  0  0
  -22.6183    2.4912  -12.9498 H   0  0  0  0  0  0  0  0  0  0  0  0
  -17.2925    2.6260  -16.0393 C   0  0  0  0  0  0  0  0  0  0  0  0
  -16.3508    1.5652  -16.1470 C   0  0  0  0  0  0  0  0  0  0  0  0
  -15.2337    2.0831  -16.7670 C   0  0  0  0  0  0  0  0  0  0  0  0
  -15.4308    3.3877  -17.0741 O   0  0  0  0  0  0  0  0  0  0  0  0
  -16.6754    3.7137  -16.6357 C   0  0  0  0  0  0  0  0  0  0  0  0
  -26.2114   -1.2626  -12.0538 N   0  0  0  0  0  0  0  0  0  0  0  0
  -26.3688   -1.4907  -10.6961 C   0  0  0  0  0  0  0  0  0  0  0  0
  -25.5139   -1.2693   -9.8459 O   0  0  0  0  0  0  0  0  0  0  0  0
  -27.6076   -2.0447  -10.4101 N   0  0  0  0  0  0  0  0  0  0  0  0
  -27.0527   -1.0239  -12.5594 H   0  0  0  0  0  0  0  0  0  0  0  0
  -27.9679   -2.6563  -11.1295 H   0  0  0  0  0  0  0  0  0  0  0  0
  -28.0150   -2.3060   -9.0806 C   0  0  0  0  0  0  0  0  0  0  0  0
  -28.5789   -3.5363   -8.7156 C   0  0  0  0  0  0  0  0  0  0  0  0
  -29.0080   -3.7603   -7.4071 C   0  0  0  0  0  0  0  0  0  0  0  0
  -28.8785   -2.7535   -6.4534 C   0  0  0  0  0  0  0  0  0  0  0  0
  -28.3115   -1.5409   -6.8219 C   0  0  0  0  0  0  0  0  0  0  0  0
  -28.2089   -0.5624   -5.9116 F   0  0  0  0  0  0  0  0  0  0  0  0
  -27.8574   -1.3114   -8.1199 C   0  0  0  0  0  0  0  0  0  0  0  0
  7  8  1  0  0  0
  7 17  1  0  0  0
  7 18  1  0  0  0
  8  9  1  0  0  0
  8 16  2  0  0  0
  9 10  2  0  0  0
 10 11  1  0  0  0
 11 19  1  0  0  0
 11 12  2  0  0  0
 19 20  1  0  0  0
 19 23  2  0  0  0
 20 21  2  0  0  0
 21 22  1  0  0  0
 22 23  1  0  0  0
 12 13  1  0  0  0
 12 16  1  0  0  0
 13 14  1  0  0  0
 14 15  2  0  0  0
 15  1  1  0  0  0
 15 16  1  0  0  0
  1  2  1  0  0  0
  1  6  2  0  0  0
  2  3  2  0  0  0
  3  4  1  0  0  0
  4 24  1  0  0  0
  4  5  2  0  0  0
 24 25  1  0  0  0
 24 28  1  0  0  0
 25 26  2  0  0  0
 25 27  1  0  0  0
 27 30  1  0  0  0
 27 29  1  0  0  0
 30 31  1  0  0  0
 30 36  2  0  0  0
 31 32  2  0  0  0
 32 33  1  0  0  0
 33 34  2  0  0  0
 34 35  1  0  0  0
 34 36  1  0  0  0
  5  6  1  0  0  0
M  END
> <minimizedAffinity>
-9.44394

$$$$
