CHEMBL383030


 34 38  0  0  0  0  0  0  0  0999 V2000
  -29.4599   -6.6307   -5.6127 C   0  0  0  0  0  0  0  0  0  0  0  0
  -29.4139   -7.9690   -6.0199 C   0  0  0  0  0  0  0  0  0  0  0  0
  -28.8637   -8.2851   -7.2495 C   0  0  0  0  0  0  0  0  0  0  0  0
  -28.8318   -9.5817   -7.5967 C   0  0  0  0  0  0  0  0  0  0  0  0
  -28.2835   -9.8872   -8.7484 C   0  0  0  0  0  0  0  0  0  0  0  0
  -27.7695  -10.2097   -9.8330 C   0  0  0  0  0  0  0  0  0  0  0  0
  -27.7743   -8.3388   -9.4001 C   0  0  0  0  0  0  0  0  0  0  0  0
  -28.3042   -7.4267   -8.1813 C   0  0  0  0  0  0  0  0  0  0  0  0
  -28.3915   -6.0076   -7.7197 C   0  0  0  0  0  0  0  0  0  0  0  0
  -27.9540   -4.8649   -8.3764 O   0  0  0  0  0  0  0  0  0  0  0  0
  -28.2487   -3.8076   -7.5687 C   0  0  0  0  0  0  0  0  0  0  0  0
  -28.8600   -4.2038   -6.4113 C   0  0  0  0  0  0  0  0  0  0  0  0
  -28.9622   -5.6194   -6.4815 C   0  0  0  0  0  0  0  0  0  0  0  0
  -29.2447   -3.2222   -5.4244 C   0  0  0  0  0  0  0  0  0  0  0  0
  -29.7379   -3.4749   -4.3413 O   0  0  0  0  0  0  0  0  0  0  0  0
  -28.9581   -1.8100   -5.7310 C   0  0  0  0  0  0  0  0  0  0  0  0
  -29.3007   -0.8102   -4.8295 C   0  0  0  0  0  0  0  0  0  0  0  0
  -29.0255    0.5154   -5.1258 C   0  0  0  0  0  0  0  0  0  0  0  0
  -28.4071    0.8511   -6.3164 C   0  0  0  0  0  0  0  0  0  0  0  0
  -28.0582   -0.1299   -7.2160 C   0  0  0  0  0  0  0  0  0  0  0  0
  -28.3354   -1.4548   -6.9195 C   0  0  0  0  0  0  0  0  0  0  0  0
  -27.9465   -2.4593   -7.9102 C   0  0  0  0  0  0  0  0  0  0  0  0
  -27.4020   -2.0839   -8.9367 O   0  0  0  0  0  0  0  0  0  0  0  0
  -30.1093   -6.2568   -4.3137 C   0  0  0  0  0  0  0  0  0  0  0  0
  -29.4473   -6.1561   -3.2944 O   0  0  0  0  0  0  0  0  0  0  0  0
  -32.0533   -5.4432   -3.1815 C   0  0  0  0  0  0  0  0  0  0  0  0
  -31.4479   -5.9953   -4.3787 O   0  0  0  0  0  0  0  0  0  0  0  0
  -29.9351   -8.9163   -5.1634 O   0  0  0  0  0  0  0  0  0  0  0  0
  -29.0717   -9.8694   -4.5419 C   0  0  0  0  0  0  0  0  0  0  0  0
  -28.0012   -9.2734   -3.7299 C   0  0  0  0  0  0  0  0  0  0  0  0
  -26.8624  -10.2532   -3.5014 C   0  0  0  0  0  0  0  0  0  0  0  0
  -25.6011   -9.6267   -3.8948 N   0  0  0  0  0  0  0  0  0  0  0  0
  -24.5015  -10.2276   -3.1444 C   0  0  0  0  0  0  0  0  0  0  0  0
  -25.3743   -9.8410   -5.3180 C   0  0  0  0  0  0  0  0  0  0  0  0
 26 27  1  0  0  0
 27 24  1  0  0  0
 24 25  2  0  0  0
 24  1  1  0  0  0
  1  2  1  0  0  0
  1 13  2  0  0  0
  2 28  1  0  0  0
  2  3  2  0  0  0
 28 29  1  0  0  0
 29 30  1  0  0  0
 30 31  1  0  0  0
 31 32  1  0  0  0
 32 33  1  0  0  0
 32 34  1  0  0  0
  3  4  1  0  0  0
  3  8  1  0  0  0
  4  5  2  0  0  0
  5  6  1  0  0  0
  6  7  2  0  0  0
  7  8  1  0  0  0
  8  9  2  0  0  0
  9 10  1  0  0  0
  9 13  1  0  0  0
 10 11  1  0  0  0
 11 12  2  0  0  0
 11 22  1  0  0  0
 12 13  1  0  0  0
 12 14  1  0  0  0
 14 15  2  0  0  0
 14 16  1  0  0  0
 16 17  1  0  0  0
 16 21  2  0  0  0
 17 18  2  0  0  0
 18 19  1  0  0  0
 19 20  2  0  0  0
 20 21  1  0  0  0
 21 22  1  0  0  0
 22 23  2  0  0  0
M  END
> <minimizedAffinity>
-8.75329

$$$$
