CHEMBL1084452


 45 51  0  0  0  0  0  0  0  0999 V2000
  -28.5287   -4.2760   -5.1002 O   0  0  0  0  0  0  0  0  0  0  0  0
  -28.5625   -3.4943   -6.2571 C   0  0  0  0  0  0  0  0  0  0  0  0
  -28.9032   -4.0536   -7.4871 C   0  0  0  0  0  0  0  0  0  0  0  0
  -28.7781   -3.3127   -8.6567 C   0  0  0  0  0  0  0  0  0  0  0  0
  -28.3657   -1.9741   -8.6378 C   0  0  0  0  0  0  0  0  0  0  0  0
  -28.2510   -1.3223   -7.3698 C   0  0  0  0  0  0  0  0  0  0  0  0
  -28.0760    0.0812   -7.2360 C   0  0  0  0  0  0  0  0  0  0  0  0
  -27.9454    0.6988   -5.9933 C   0  0  0  0  0  0  0  0  0  0  0  0
  -27.9709   -0.0684   -4.8399 C   0  0  0  0  0  0  0  0  0  0  0  0
  -28.1495   -1.4504   -4.9285 C   0  0  0  0  0  0  0  0  0  0  0  0
  -28.3196   -2.1005   -6.1695 C   0  0  0  0  0  0  0  0  0  0  0  0
  -28.0950   -1.2840   -9.8588 N   0  0  0  0  0  0  0  0  0  0  0  0
  -28.5944   -0.4104   -9.9261 H   0  0  0  0  0  0  0  0  0  0  0  0
  -26.9430   -1.3775  -10.5736 C   0  0  0  0  0  0  0  0  0  0  0  0
  -25.7003   -1.5359  -10.1778 N   0  0  0  0  0  0  0  0  0  0  0  0
  -24.9351   -1.5733  -11.3127 C   0  0  0  0  0  0  0  0  0  0  0  0
  -23.5506   -1.7380  -11.4527 C   0  0  0  0  0  0  0  0  0  0  0  0
  -23.0095   -1.7842  -12.7426 C   0  0  0  0  0  0  0  0  0  0  0  0
  -23.8304   -1.6580  -13.8668 C   0  0  0  0  0  0  0  0  0  0  0  0
  -25.2137   -1.4714  -13.7445 C   0  0  0  0  0  0  0  0  0  0  0  0
  -25.7253   -1.4351  -12.4456 C   0  0  0  0  0  0  0  0  0  0  0  0
  -26.9938   -1.2830  -11.9452 N   0  0  0  0  0  0  0  0  0  0  0  0
  -27.8326   -1.1696  -12.4900 H   0  0  0  0  0  0  0  0  0  0  0  0
  -30.3161   -5.8708   -4.6612 C   0  0  0  0  0  0  0  0  0  0  0  0
  -31.4895   -6.1113   -3.9063 C   0  0  0  0  0  0  0  0  0  0  0  0
  -32.0481   -5.1400   -3.0794 C   0  0  0  0  0  0  0  0  0  0  0  0
  -31.4451   -3.9060   -3.0448 C   0  0  0  0  0  0  0  0  0  0  0  0
  -30.3369   -3.6135   -3.7469 N   0  0  0  0  0  0  0  0  0  0  0  0
  -29.7530   -4.5934   -4.4949 C   0  0  0  0  0  0  0  0  0  0  0  0
  -28.0608   -8.5248   -5.7699 C   0  0  0  0  0  0  0  0  0  0  0  0
  -28.4746   -8.8413   -7.0002 N   0  0  0  0  0  0  0  0  0  0  0  0
  -29.5934   -8.2533   -7.4429 C   0  0  0  0  0  0  0  0  0  0  0  0
  -30.2943   -7.3005   -6.7414 C   0  0  0  0  0  0  0  0  0  0  0  0
  -29.7901   -6.9761   -5.5013 C   0  0  0  0  0  0  0  0  0  0  0  0
  -28.6803   -7.6048   -5.0075 N   0  0  0  0  0  0  0  0  0  0  0  0
  -26.8708   -9.1237   -5.3502 N   0  0  0  0  0  0  0  0  0  0  0  0
  -27.0073   -9.3249   -4.3655 H   0  0  0  0  0  0  0  0  0  0  0  0
  -26.4457  -10.2874   -6.1157 C   0  0  0  0  0  0  0  0  0  0  0  0
  -25.3979  -11.1009   -5.3193 C   0  0  0  0  0  0  0  0  0  0  0  0
  -22.6612  -10.4272   -6.4585 C   0  0  0  0  0  0  0  0  0  0  0  0
  -22.9433  -10.3235   -5.0404 N   0  0  0  0  0  0  0  0  0  0  0  0
  -22.3649  -11.4130   -4.2650 C   0  0  0  0  0  0  0  0  0  0  0  0
  -22.9484  -11.1864   -2.8855 C   0  0  0  0  0  0  0  0  0  0  0  0
  -24.2544  -10.4342   -3.1201 C   0  0  0  0  0  0  0  0  0  0  0  0
  -24.3515  -10.1881   -4.6346 C   0  0  0  0  0  0  0  0  0  0  0  0
 40 41  1  0  0  0
 41 42  1  0  0  0
 41 45  1  0  0  0
 42 43  1  0  0  0
 43 44  1  0  0  0
 44 45  1  0  0  0
 45 39  1  0  0  0
 39 38  1  0  0  0
 38 36  1  0  0  0
 36 30  1  0  0  0
 36 37  1  0  0  0
 30 31  1  0  0  0
 30 35  2  0  0  0
 31 32  2  0  0  0
 32 33  1  0  0  0
 33 34  2  0  0  0
 34 24  1  0  0  0
 34 35  1  0  0  0
 24 25  1  0  0  0
 24 29  2  0  0  0
 25 26  2  0  0  0
 26 27  1  0  0  0
 27 28  2  0  0  0
 28 29  1  0  0  0
 29  1  1  0  0  0
  1  2  1  0  0  0
  2  3  1  0  0  0
  2 11  2  0  0  0
  3  4  2  0  0  0
  4  5  1  0  0  0
  5 12  1  0  0  0
  5  6  2  0  0  0
 12 14  1  0  0  0
 12 13  1  0  0  0
 14 15  2  0  0  0
 14 22  1  0  0  0
 15 16  1  0  0  0
 16 17  1  0  0  0
 16 21  2  0  0  0
 17 18  2  0  0  0
 18 19  1  0  0  0
 19 20  2  0  0  0
 20 21  1  0  0  0
 21 22  1  0  0  0
 22 23  1  0  0  0
  6  7  1  0  0  0
  6 11  1  0  0  0
  7  8  2  0  0  0
  8  9  1  0  0  0
  9 10  2  0  0  0
 10 11  1  0  0  0
M  END
> <minimizedAffinity>
-11.42111

$$$$
