CHEMBL3808622


 34 38  0  0  0  0  0  0  0  0999 V2000
  -26.1105   -9.4199   -5.8554 N   0  0  0  0  0  0  0  0  0  0  0  0
  -27.2099  -10.1532   -5.5660 C   0  0  0  0  0  0  0  0  0  0  0  0
  -27.3636  -11.3229   -5.2517 O   0  0  0  0  0  0  0  0  0  0  0  0
  -28.4136   -9.4445   -5.8146 N   0  0  0  0  0  0  0  0  0  0  0  0
  -29.5297  -10.0308   -6.3887 C   0  0  0  0  0  0  0  0  0  0  0  0
  -30.5381   -9.1178   -6.4950 C   0  0  0  0  0  0  0  0  0  0  0  0
  -30.0753   -7.9021   -5.9369 C   0  0  0  0  0  0  0  0  0  0  0  0
  -30.6980   -6.6567   -5.7118 C   0  0  0  0  0  0  0  0  0  0  0  0
  -30.0065   -5.6275   -5.0579 C   0  0  0  0  0  0  0  0  0  0  0  0
  -28.6665   -5.8257   -4.7141 C   0  0  0  0  0  0  0  0  0  0  0  0
  -28.0230   -7.0581   -4.9078 C   0  0  0  0  0  0  0  0  0  0  0  0
  -28.7404   -8.0941   -5.5449 C   0  0  0  0  0  0  0  0  0  0  0  0
  -26.1819   -8.5201   -6.3063 H   0  0  0  0  0  0  0  0  0  0  0  0
  -22.8803  -10.9260   -6.2549 C   0  0  0  0  0  0  0  0  0  0  0  0
  -24.1417  -10.6310   -6.7866 C   0  0  0  0  0  0  0  0  0  0  0  0
  -24.8410   -9.9641   -5.7472 C   0  0  0  0  0  0  0  0  0  0  0  0
  -24.0968   -9.8927   -4.6414 N   0  0  0  0  0  0  0  0  0  0  0  0
  -22.9453  -10.4839   -4.9547 N   0  0  0  0  0  0  0  0  0  0  0  0
  -22.2328  -10.5235   -4.2372 H   0  0  0  0  0  0  0  0  0  0  0  0
  -20.9698  -12.4657   -5.8829 C   0  0  0  0  0  0  0  0  0  0  0  0
  -21.6499  -11.5213   -6.8896 C   0  0  0  0  0  0  0  0  0  0  0  0
  -20.6565  -10.4120   -7.2886 C   0  0  0  0  0  0  0  0  0  0  0  0
  -21.9905  -12.3317   -8.1628 C   0  0  0  0  0  0  0  0  0  0  0  0
  -30.7320   -4.4652   -4.8326 O   0  0  0  0  0  0  0  0  0  0  0  0
  -30.1192   -3.2625   -5.1644 C   0  0  0  0  0  0  0  0  0  0  0  0
  -29.6041   -2.5105   -4.1671 N   0  0  0  0  0  0  0  0  0  0  0  0
  -28.6063   -1.6774   -4.5096 C   0  0  0  0  0  0  0  0  0  0  0  0
  -28.0521   -1.5701   -5.7267 N   0  0  0  0  0  0  0  0  0  0  0  0
  -28.6851   -2.2764   -6.6735 C   0  0  0  0  0  0  0  0  0  0  0  0
  -29.8177   -3.0417   -6.4768 C   0  0  0  0  0  0  0  0  0  0  0  0
  -30.0652   -3.8206   -7.7172 C   0  0  0  0  0  0  0  0  0  0  0  0
  -28.6827   -4.1608   -8.1277 N   0  0  0  0  0  0  0  0  0  0  0  0
  -28.0266   -2.8165   -7.9378 C   0  0  0  0  0  0  0  0  0  0  0  0
  -28.3057   -4.7748   -7.3941 H   0  0  0  0  0  0  0  0  0  0  0  0
 20 21  1  0  0  0
 21 22  1  0  0  0
 21 23  1  0  0  0
 21 14  1  0  0  0
 14 15  2  0  0  0
 14 18  1  0  0  0
 15 16  1  0  0  0
 16  1  1  0  0  0
 16 17  2  0  0  0
  1  2  1  0  0  0
  1 13  1  0  0  0
  2  3  2  0  0  0
  2  4  1  0  0  0
  4  5  1  0  0  0
  4 12  1  0  0  0
  5  6  2  0  0  0
  6  7  1  0  0  0
  7  8  1  0  0  0
  7 12  2  0  0  0
  8  9  2  0  0  0
  9 24  1  0  0  0
  9 10  1  0  0  0
 24 25  1  0  0  0
 25 26  1  0  0  0
 25 30  2  0  0  0
 26 27  2  0  0  0
 27 28  1  0  0  0
 28 29  2  0  0  0
 29 30  1  0  0  0
 29 33  1  0  0  0
 30 31  1  0  0  0
 31 32  1  0  0  0
 32 33  1  0  0  0
 32 34  1  0  0  0
 10 11  2  0  0  0
 11 12  1  0  0  0
 17 18  1  0  0  0
 18 19  1  0  0  0
M  END
> <minimizedAffinity>
-9.55783

$$$$
