CHEMBL352992


 32 35  0  0  0  0  0  0  0  0999 V2000
  -27.9830   -8.8088   -5.6398 C   0  0  0  0  0  0  0  0  0  0  0  0
  -27.7663   -9.6674   -4.6309 N   0  0  0  0  0  0  0  0  0  0  0  0
  -28.3180   -9.3732   -3.4514 C   0  0  0  0  0  0  0  0  0  0  0  0
  -29.0352   -8.2809   -3.1724 N   0  0  0  0  0  0  0  0  0  0  0  0
  -29.1767   -7.3960   -4.1607 C   0  0  0  0  0  0  0  0  0  0  0  0
  -29.8482   -6.2117   -3.8832 C   0  0  0  0  0  0  0  0  0  0  0  0
  -29.9654   -5.1610   -4.8103 C   0  0  0  0  0  0  0  0  0  0  0  0
  -29.4829   -5.3599   -6.1068 C   0  0  0  0  0  0  0  0  0  0  0  0
  -28.8515   -6.5739   -6.4128 C   0  0  0  0  0  0  0  0  0  0  0  0
  -28.6639   -7.5901   -5.4428 C   0  0  0  0  0  0  0  0  0  0  0  0
  -27.4292   -9.1049   -6.9212 N   0  0  0  0  0  0  0  0  0  0  0  0
  -27.1803   -8.2241   -7.3656 H   0  0  0  0  0  0  0  0  0  0  0  0
  -30.2004  -10.7308   -8.7841 C   0  0  0  0  0  0  0  0  0  0  0  0
  -29.5208  -11.5316   -9.6983 C   0  0  0  0  0  0  0  0  0  0  0  0
  -28.1272  -11.5803   -9.6757 C   0  0  0  0  0  0  0  0  0  0  0  0
  -27.4056  -10.8108   -8.7575 C   0  0  0  0  0  0  0  0  0  0  0  0
  -25.7068  -11.1330   -8.6513 Cl  0  0  0  0  0  0  0  0  0  0  0  0
  -28.0682   -9.9006   -7.9106 C   0  0  0  0  0  0  0  0  0  0  0  0
  -29.4768   -9.9073   -7.9159 C   0  0  0  0  0  0  0  0  0  0  0  0
  -32.0604   -9.5144   -7.9900 C   0  0  0  0  0  0  0  0  0  0  0  0
  -31.5631  -10.6649   -8.6696 O   0  0  0  0  0  0  0  0  0  0  0  0
  -29.5601   -4.5392   -7.1979 O   0  0  0  0  0  0  0  0  0  0  0  0
  -28.4328   -4.3985   -8.0457 C   0  0  0  0  0  0  0  0  0  0  0  0
  -30.5625   -3.9705   -4.4766 O   0  0  0  0  0  0  0  0  0  0  0  0
  -29.8748   -3.1814   -3.4959 C   0  0  0  0  0  0  0  0  0  0  0  0
  -29.2640   -1.9729   -4.0418 N   0  0  0  0  0  0  0  0  0  0  0  0
  -27.8680   -2.1978   -4.4424 C   0  0  0  0  0  0  0  0  0  0  0  0
  -27.2045   -0.9203   -5.0028 C   0  0  0  0  0  0  0  0  0  0  0  0
  -27.9586   -0.2467   -6.0801 N   0  0  0  0  0  0  0  0  0  0  0  0
  -27.8598   -0.9699   -7.3458 C   0  0  0  0  0  0  0  0  0  0  0  0
  -29.3673   -0.0915   -5.6597 C   0  0  0  0  0  0  0  0  0  0  0  0
  -30.0379   -1.3884   -5.1426 C   0  0  0  0  0  0  0  0  0  0  0  0
 20 21  1  0  0  0
 21 13  1  0  0  0
 13 14  1  0  0  0
 13 19  2  0  0  0
 14 15  2  0  0  0
 15 16  1  0  0  0
 16 17  1  0  0  0
 16 18  2  0  0  0
 18 11  1  0  0  0
 18 19  1  0  0  0
 11  1  1  0  0  0
 11 12  1  0  0  0
  1  2  1  0  0  0
  1 10  2  0  0  0
  2  3  2  0  0  0
  3  4  1  0  0  0
  4  5  2  0  0  0
  5  6  1  0  0  0
  5 10  1  0  0  0
  6  7  2  0  0  0
  7 24  1  0  0  0
  7  8  1  0  0  0
 24 25  1  0  0  0
 25 26  1  0  0  0
 26 27  1  0  0  0
 26 32  1  0  0  0
 27 28  1  0  0  0
 28 29  1  0  0  0
 29 30  1  0  0  0
 29 31  1  0  0  0
 31 32  1  0  0  0
  8 22  1  0  0  0
  8  9  2  0  0  0
 22 23  1  0  0  0
  9 10  1  0  0  0
M  END
> <minimizedAffinity>
-7.66901

$$$$
