CHEMBL3977258


 38 41  0  0  0  0  0  0  0  0999 V2000
  -28.9333   -3.6621   -6.6554 C   0  0  0  0  0  0  0  0  0  0  0  0
  -29.8669   -4.6637   -6.9390 C   0  0  0  0  0  0  0  0  0  0  0  0
  -30.1185   -5.6790   -6.0074 C   0  0  0  0  0  0  0  0  0  0  0  0
  -29.4526   -5.6934   -4.7779 C   0  0  0  0  0  0  0  0  0  0  0  0
  -28.5158   -4.6969   -4.4925 C   0  0  0  0  0  0  0  0  0  0  0  0
  -28.2639   -3.6978   -5.4302 C   0  0  0  0  0  0  0  0  0  0  0  0
  -27.3804   -2.7320   -5.1315 F   0  0  0  0  0  0  0  0  0  0  0  0
  -27.5992   -1.6472   -9.3726 N   0  0  0  0  0  0  0  0  0  0  0  0
  -27.7776   -2.8112   -8.6413 C   0  0  0  0  0  0  0  0  0  0  0  0
  -27.2666   -3.8913   -8.9193 O   0  0  0  0  0  0  0  0  0  0  0  0
  -28.6284   -2.6204   -7.5675 N   0  0  0  0  0  0  0  0  0  0  0  0
  -27.6383   -0.7889   -8.8416 H   0  0  0  0  0  0  0  0  0  0  0  0
  -29.3730   -1.9515   -7.7238 H   0  0  0  0  0  0  0  0  0  0  0  0
  -24.9936   -1.5258  -12.0784 C   0  0  0  0  0  0  0  0  0  0  0  0
  -25.6047   -1.5677  -10.8084 C   0  0  0  0  0  0  0  0  0  0  0  0
  -26.9950   -1.6045  -10.6492 C   0  0  0  0  0  0  0  0  0  0  0  0
  -27.7984   -1.6313  -11.7868 C   0  0  0  0  0  0  0  0  0  0  0  0
  -27.2125   -1.5852  -13.0583 C   0  0  0  0  0  0  0  0  0  0  0  0
  -25.8203   -1.5367  -13.2045 C   0  0  0  0  0  0  0  0  0  0  0  0
  -25.1981   -1.5286  -14.8151 Cl  0  0  0  0  0  0  0  0  0  0  0  0
  -22.9558   -0.1477  -12.5178 C   0  0  0  0  0  0  0  0  0  0  0  0
  -23.4818   -1.5225  -12.1315 C   0  0  0  0  0  0  0  0  0  0  0  0
  -22.9988   -2.4044  -13.0608 F   0  0  0  0  0  0  0  0  0  0  0  0
  -22.8846   -1.9003  -10.9662 F   0  0  0  0  0  0  0  0  0  0  0  0
  -29.6933   -6.7763   -3.9564 O   0  0  0  0  0  0  0  0  0  0  0  0
  -28.9532   -7.9369   -4.1511 C   0  0  0  0  0  0  0  0  0  0  0  0
  -28.3169   -8.0773   -5.3708 C   0  0  0  0  0  0  0  0  0  0  0  0
  -27.6219   -9.2544   -5.5509 C   0  0  0  0  0  0  0  0  0  0  0  0
  -27.5641  -10.1863   -4.5908 N   0  0  0  0  0  0  0  0  0  0  0  0
  -28.2288   -9.9612   -3.4595 C   0  0  0  0  0  0  0  0  0  0  0  0
  -28.9444   -8.8729   -3.1862 N   0  0  0  0  0  0  0  0  0  0  0  0
  -26.9751   -9.4908   -6.7804 N   0  0  0  0  0  0  0  0  0  0  0  0
  -27.5852  -10.1424   -7.8409 C   0  0  0  0  0  0  0  0  0  0  0  0
  -28.6970  -10.6432   -7.8574 O   0  0  0  0  0  0  0  0  0  0  0  0
  -26.0422   -9.1315   -6.9050 H   0  0  0  0  0  0  0  0  0  0  0  0
  -26.7533  -10.2190   -9.0865 C   0  0  0  0  0  0  0  0  0  0  0  0
  -27.0618   -9.2716  -10.2300 C   0  0  0  0  0  0  0  0  0  0  0  0
  -27.3866  -10.7301  -10.3653 C   0  0  0  0  0  0  0  0  0  0  0  0
 21 22  1  0  0  0
 22 23  1  0  0  0
 22 24  1  0  0  0
 22 14  1  0  0  0
 14 15  1  0  0  0
 14 19  2  0  0  0
 15 16  2  0  0  0
 16  8  1  0  0  0
 16 17  1  0  0  0
  8  9  1  0  0  0
  8 12  1  0  0  0
  9 10  2  0  0  0
  9 11  1  0  0  0
 11  1  1  0  0  0
 11 13  1  0  0  0
  1  2  1  0  0  0
  1  6  2  0  0  0
  2  3  2  0  0  0
  3  4  1  0  0  0
  4 25  1  0  0  0
  4  5  2  0  0  0
 25 26  1  0  0  0
 26 27  1  0  0  0
 26 31  2  0  0  0
 27 28  2  0  0  0
 28 32  1  0  0  0
 28 29  1  0  0  0
 32 33  1  0  0  0
 32 35  1  0  0  0
 33 34  2  0  0  0
 33 36  1  0  0  0
 36 37  1  0  0  0
 36 38  1  0  0  0
 37 38  1  0  0  0
 29 30  2  0  0  0
 30 31  1  0  0  0
  5  6  1  0  0  0
  6  7  1  0  0  0
 17 18  2  0  0  0
 18 19  1  0  0  0
 19 20  1  0  0  0
M  END
> <minimizedAffinity>
-10.40885

$$$$
