CHEMBL3676388


 37 39  0  0  0  0  0  0  0  0999 V2000
  -28.1024   -9.0879   -8.4915 C   0  0  0  0  0  0  0  0  0  0  0  0
  -28.6437   -7.9265   -7.9505 C   0  0  0  0  0  0  0  0  0  0  0  0
  -28.8569   -7.8226   -6.5613 C   0  0  0  0  0  0  0  0  0  0  0  0
  -29.4949   -6.7372   -5.9493 C   0  0  0  0  0  0  0  0  0  0  0  0
  -29.6446   -6.6605   -4.6159 N   0  0  0  0  0  0  0  0  0  0  0  0
  -29.1809   -7.6863   -3.8998 C   0  0  0  0  0  0  0  0  0  0  0  0
  -28.5913   -8.7855   -4.3797 N   0  0  0  0  0  0  0  0  0  0  0  0
  -28.4408   -8.8509   -5.7062 C   0  0  0  0  0  0  0  0  0  0  0  0
  -27.8350   -9.9706   -6.2622 C   0  0  0  0  0  0  0  0  0  0  0  0
  -27.6461  -10.1090   -7.6453 C   0  0  0  0  0  0  0  0  0  0  0  0
  -28.9874  -10.1121  -10.4662 C   0  0  0  0  0  0  0  0  0  0  0  0
  -29.7529  -10.8447   -9.8524 O   0  0  0  0  0  0  0  0  0  0  0  0
  -28.1098   -9.2057   -9.8958 N   0  0  0  0  0  0  0  0  0  0  0  0
  -28.0152   -8.3417  -10.4162 H   0  0  0  0  0  0  0  0  0  0  0  0
  -27.8501   -9.6314  -12.5808 C   0  0  0  0  0  0  0  0  0  0  0  0
  -28.9436  -10.0810  -11.9520 C   0  0  0  0  0  0  0  0  0  0  0  0
  -30.0591   -5.7126   -6.7701 N   0  0  0  0  0  0  0  0  0  0  0  0
  -31.0602   -5.8073   -6.7009 H   0  0  0  0  0  0  0  0  0  0  0  0
  -29.6291   -4.3659   -6.7546 C   0  0  0  0  0  0  0  0  0  0  0  0
  -28.7189   -3.9686   -7.7586 C   0  0  0  0  0  0  0  0  0  0  0  0
  -28.0919   -2.7153   -7.7891 C   0  0  0  0  0  0  0  0  0  0  0  0
  -28.4375   -1.7967   -6.8008 C   0  0  0  0  0  0  0  0  0  0  0  0
  -27.7828   -0.2057   -6.6462 Cl  0  0  0  0  0  0  0  0  0  0  0  0
  -29.3923   -2.1499   -5.8308 C   0  0  0  0  0  0  0  0  0  0  0  0
  -30.0009   -3.4159   -5.7961 C   0  0  0  0  0  0  0  0  0  0  0  0
  -27.2122   -2.6363   -8.8298 O   0  0  0  0  0  0  0  0  0  0  0  0
  -27.4676   -1.7932   -9.9363 C   0  0  0  0  0  0  0  0  0  0  0  0
  -30.8076   -3.5712   -4.7014 O   0  0  0  0  0  0  0  0  0  0  0  0
  -30.3150   -3.2632   -3.4079 C   0  0  0  0  0  0  0  0  0  0  0  0
  -26.9918  -11.2617   -8.0175 O   0  0  0  0  0  0  0  0  0  0  0  0
  -25.5856  -11.1142   -8.2285 C   0  0  0  0  0  0  0  0  0  0  0  0
  -24.7803  -11.6647   -7.0478 C   0  0  0  0  0  0  0  0  0  0  0  0
  -23.3420  -11.5354   -7.2574 N   0  0  0  0  0  0  0  0  0  0  0  0
  -22.6250  -10.4787   -6.7414 C   0  0  0  0  0  0  0  0  0  0  0  0
  -21.1689  -10.4590   -7.1171 C   0  0  0  0  0  0  0  0  0  0  0  0
  -23.1193   -9.5880   -6.0573 O   0  0  0  0  0  0  0  0  0  0  0  0
  -22.8486  -12.3054   -7.6914 H   0  0  0  0  0  0  0  0  0  0  0  0
 15 16  2  0  0  0
 16 11  1  0  0  0
 11 12  2  0  0  0
 11 13  1  0  0  0
 13  1  1  0  0  0
 13 14  1  0  0  0
  1  2  1  0  0  0
  1 10  2  0  0  0
  2  3  2  0  0  0
  3  4  1  0  0  0
  3  8  1  0  0  0
  4 17  1  0  0  0
  4  5  2  0  0  0
 17 19  1  0  0  0
 17 18  1  0  0  0
 19 20  1  0  0  0
 19 25  2  0  0  0
 20 21  2  0  0  0
 21 26  1  0  0  0
 21 22  1  0  0  0
 26 27  1  0  0  0
 22 23  1  0  0  0
 22 24  2  0  0  0
 24 25  1  0  0  0
 25 28  1  0  0  0
 28 29  1  0  0  0
  5  6  1  0  0  0
  6  7  2  0  0  0
  7  8  1  0  0  0
  8  9  2  0  0  0
  9 10  1  0  0  0
 10 30  1  0  0  0
 30 31  1  0  0  0
 31 32  1  0  0  0
 32 33  1  0  0  0
 33 34  1  0  0  0
 33 37  1  0  0  0
 34 35  1  0  0  0
 34 36  2  0  0  0
M  END
> <minimizedAffinity>
-8.24386

$$$$
