CHEMBL3906392


 41 43  0  0  0  0  0  0  0  0999 V2000
  -24.0355   -0.4034  -13.2273 C   0  0  0  0  0  0  0  0  0  0  0  0
  -24.6626   -0.7796  -14.4059 C   0  0  0  0  0  0  0  0  0  0  0  0
  -25.8544   -1.4290  -14.4579 N   0  0  0  0  0  0  0  0  0  0  0  0
  -26.4579   -1.7196  -13.2911 C   0  0  0  0  0  0  0  0  0  0  0  0
  -27.6221   -2.4786  -13.3946 N   0  0  0  0  0  0  0  0  0  0  0  0
  -25.9099   -1.3612  -12.0506 C   0  0  0  0  0  0  0  0  0  0  0  0
  -24.6819   -0.6972  -12.0233 C   0  0  0  0  0  0  0  0  0  0  0  0
  -27.8770   -2.5330  -14.3765 H   0  0  0  0  0  0  0  0  0  0  0  0
  -28.3691   -2.1484  -12.7978 H   0  0  0  0  0  0  0  0  0  0  0  0
  -22.7386    0.3248  -13.2756 C   0  0  0  0  0  0  0  0  0  0  0  0
  -21.9305    0.0649  -12.3904 O   0  0  0  0  0  0  0  0  0  0  0  0
  -21.1093    1.9504  -14.4206 S   0  0  0  0  0  0  0  0  0  0  0  0
  -21.2562    3.1326  -15.7463 C   0  0  0  0  0  0  0  0  0  0  0  0
  -20.4072    2.6309  -13.3508 O   0  0  0  0  0  0  0  0  0  0  0  0
  -22.4886    1.2680  -14.2905 N   0  0  0  0  0  0  0  0  0  0  0  0
  -20.0033    0.7017  -15.0850 C   0  0  0  0  0  0  0  0  0  0  0  0
  -18.6159    1.2398  -15.4064 C   0  0  0  0  0  0  0  0  0  0  0  0
  -17.5256    0.3471  -14.8211 C   0  0  0  0  0  0  0  0  0  0  0  0
  -16.8906    0.9882  -13.5876 C   0  0  0  0  0  0  0  0  0  0  0  0
  -15.6993    0.1913  -13.1110 C   0  0  0  0  0  0  0  0  0  0  0  0
  -14.7260    0.6542  -12.5413 O   0  0  0  0  0  0  0  0  0  0  0  0
  -15.4886   -2.0034  -12.3489 C   0  0  0  0  0  0  0  0  0  0  0  0
  -15.8831   -1.1268  -13.4042 O   0  0  0  0  0  0  0  0  0  0  0  0
  -26.5985   -1.6369  -10.8262 C   0  0  0  0  0  0  0  0  0  0  0  0
  -27.2013   -1.9022   -9.8215 C   0  0  0  0  0  0  0  0  0  0  0  0
  -27.9035   -2.2601   -8.6259 C   0  0  0  0  0  0  0  0  0  0  0  0
  -27.7873   -1.4574   -7.4914 C   0  0  0  0  0  0  0  0  0  0  0  0
  -28.4231   -1.8366   -6.3139 C   0  0  0  0  0  0  0  0  0  0  0  0
  -29.1776   -3.0106   -6.2724 C   0  0  0  0  0  0  0  0  0  0  0  0
  -29.3262   -3.8146   -7.4058 C   0  0  0  0  0  0  0  0  0  0  0  0
  -28.6783   -3.4313   -8.5873 C   0  0  0  0  0  0  0  0  0  0  0  0
  -30.0773   -5.0136   -7.3996 N   0  0  0  0  0  0  0  0  0  0  0  0
  -29.5802   -6.3051   -7.2596 C   0  0  0  0  0  0  0  0  0  0  0  0
  -28.4022   -6.5803   -7.0494 O   0  0  0  0  0  0  0  0  0  0  0  0
  -31.0875   -4.9414   -7.4597 H   0  0  0  0  0  0  0  0  0  0  0  0
  -30.5963   -7.3431   -7.3404 C   0  0  0  0  0  0  0  0  0  0  0  0
  -31.7751   -7.1845   -6.6568 O   0  0  0  0  0  0  0  0  0  0  0  0
  -32.5273   -8.2892   -6.8933 C   0  0  0  0  0  0  0  0  0  0  0  0
  -31.8597   -9.1616   -7.7168 C   0  0  0  0  0  0  0  0  0  0  0  0
  -30.6072   -8.5589   -8.0166 C   0  0  0  0  0  0  0  0  0  0  0  0
  -29.5289   -9.1331   -8.8640 C   0  0  0  0  0  0  0  0  0  0  0  0
 22 23  1  0  0  0
 23 20  1  0  0  0
 20 21  2  0  0  0
 20 19  1  0  0  0
 19 18  1  0  0  0
 18 17  1  0  0  0
 17 16  1  0  0  0
 12 14  2  0  0  0
 12 15  2  0  0  0
 12 13  1  0  0  0
 12 16  1  0  0  0
 15 10  1  0  0  0
 10 11  2  0  0  0
 10  1  1  0  0  0
  1  2  1  0  0  0
  1  7  2  0  0  0
  2  3  2  0  0  0
  3  4  1  0  0  0
  4  5  1  0  0  0
  4  6  2  0  0  0
  5  8  1  0  0  0
  5  9  1  0  0  0
  6 24  1  0  0  0
  6  7  1  0  0  0
 24 25  3  0  0  0
 25 26  1  0  0  0
 26 27  1  0  0  0
 26 31  2  0  0  0
 27 28  2  0  0  0
 28 29  1  0  0  0
 29 30  2  0  0  0
 30 32  1  0  0  0
 30 31  1  0  0  0
 32 33  1  0  0  0
 32 35  1  0  0  0
 33 34  2  0  0  0
 33 36  1  0  0  0
 36 37  1  0  0  0
 36 40  2  0  0  0
 37 38  1  0  0  0
 38 39  2  0  0  0
 39 40  1  0  0  0
 40 41  1  0  0  0
M  END
> <minimizedAffinity>
-9.33167

$$$$
