CHEMBL1242028


 25 27  0  0  0  0  0  0  0  0999 V2000
  -29.0731   -9.9284   -9.1979 N   0  0  0  0  0  0  0  0  0  0  0  0
  -28.6160   -8.7299   -8.7673 N   0  0  0  0  0  0  0  0  0  0  0  0
  -29.5497   -8.3076   -7.8976 C   0  0  0  0  0  0  0  0  0  0  0  0
  -30.6412   -9.2301   -7.8157 C   0  0  0  0  0  0  0  0  0  0  0  0
  -31.9015   -9.3106   -7.2003 C   0  0  0  0  0  0  0  0  0  0  0  0
  -32.5345   -8.3076   -6.4673 N   0  0  0  0  0  0  0  0  0  0  0  0
  -32.6210  -10.4490   -7.3525 N   0  0  0  0  0  0  0  0  0  0  0  0
  -32.1219  -11.4108   -8.1563 C   0  0  0  0  0  0  0  0  0  0  0  0
  -30.9743  -11.4085   -8.8475 N   0  0  0  0  0  0  0  0  0  0  0  0
  -30.2723  -10.2791   -8.6294 C   0  0  0  0  0  0  0  0  0  0  0  0
  -31.9052   -7.6707   -6.0047 H   0  0  0  0  0  0  0  0  0  0  0  0
  -33.2153   -8.6747   -5.8339 H   0  0  0  0  0  0  0  0  0  0  0  0
  -29.3822   -7.0556   -7.1847 C   0  0  0  0  0  0  0  0  0  0  0  0
  -30.0178   -5.8862   -7.6480 C   0  0  0  0  0  0  0  0  0  0  0  0
  -29.8886   -4.7291   -6.8975 C   0  0  0  0  0  0  0  0  0  0  0  0
  -30.4932   -3.6054   -7.3141 F   0  0  0  0  0  0  0  0  0  0  0  0
  -29.1652   -4.6944   -5.7025 C   0  0  0  0  0  0  0  0  0  0  0  0
  -29.0611   -3.5600   -4.9669 O   0  0  0  0  0  0  0  0  0  0  0  0
  -28.5196   -5.8277   -5.2541 C   0  0  0  0  0  0  0  0  0  0  0  0
  -28.6104   -6.9552   -6.0233 C   0  0  0  0  0  0  0  0  0  0  0  0
  -27.9251   -8.0195   -5.5727 F   0  0  0  0  0  0  0  0  0  0  0  0
  -29.5548   -2.8657   -5.4401 H   0  0  0  0  0  0  0  0  0  0  0  0
  -28.8863  -10.3146  -11.6168 C   0  0  0  0  0  0  0  0  0  0  0  0
  -28.3402  -10.6526  -10.2293 C   0  0  0  0  0  0  0  0  0  0  0  0
  -26.8359  -10.3828  -10.1569 C   0  0  0  0  0  0  0  0  0  0  0  0
 23 24  1  0  0  0
 24 25  1  0  0  0
 24  1  1  0  0  0
  1  2  1  0  0  0
  1 10  1  0  0  0
  2  3  2  0  0  0
  3 13  1  0  0  0
  3  4  1  0  0  0
 13 14  1  0  0  0
 13 20  2  0  0  0
 14 15  2  0  0  0
 15 16  1  0  0  0
 15 17  1  0  0  0
 17 18  1  0  0  0
 17 19  2  0  0  0
 18 22  1  0  0  0
 19 20  1  0  0  0
 20 21  1  0  0  0
  4  5  1  0  0  0
  4 10  2  0  0  0
  5  6  1  0  0  0
  5  7  2  0  0  0
  6 11  1  0  0  0
  6 12  1  0  0  0
  7  8  1  0  0  0
  8  9  2  0  0  0
  9 10  1  0  0  0
M  END
> <minimizedAffinity>
-7.43207

$$$$
