CHEMBL1761938


 35 38  0  0  0  0  0  0  0  0999 V2000
  -29.3772   -9.2274   -6.2256 C   0  0  0  0  0  0  0  0  0  0  0  0
  -30.3630   -8.3052   -6.5715 C   0  0  0  0  0  0  0  0  0  0  0  0
  -30.4012   -7.0552   -5.9556 C   0  0  0  0  0  0  0  0  0  0  0  0
  -29.5052   -6.7127   -4.9402 C   0  0  0  0  0  0  0  0  0  0  0  0
  -28.5879   -7.6850   -4.5212 C   0  0  0  0  0  0  0  0  0  0  0  0
  -28.5227   -8.9390   -5.1636 C   0  0  0  0  0  0  0  0  0  0  0  0
  -29.4724   -5.4177   -4.3568 N   0  0  0  0  0  0  0  0  0  0  0  0
  -29.3558   -4.2268   -5.0570 C   0  0  0  0  0  0  0  0  0  0  0  0
  -29.3802   -4.1196   -6.2790 O   0  0  0  0  0  0  0  0  0  0  0  0
  -29.1672   -3.1262   -4.2300 N   0  0  0  0  0  0  0  0  0  0  0  0
  -29.6031   -5.3580   -3.3581 H   0  0  0  0  0  0  0  0  0  0  0  0
  -28.5795   -3.2990   -3.4235 H   0  0  0  0  0  0  0  0  0  0  0  0
  -29.0325   -1.8320   -4.8086 C   0  0  0  0  0  0  0  0  0  0  0  0
  -30.1314   -0.9753   -4.9634 C   0  0  0  0  0  0  0  0  0  0  0  0
  -29.9846    0.2490   -5.6199 C   0  0  0  0  0  0  0  0  0  0  0  0
  -28.7398    0.6131   -6.1205 C   0  0  0  0  0  0  0  0  0  0  0  0
  -28.6091    1.7733   -6.7770 F   0  0  0  0  0  0  0  0  0  0  0  0
  -27.6333   -0.2110   -5.9578 C   0  0  0  0  0  0  0  0  0  0  0  0
  -27.7840   -1.4204   -5.2848 C   0  0  0  0  0  0  0  0  0  0  0  0
  -26.7239   -2.2339   -5.1589 F   0  0  0  0  0  0  0  0  0  0  0  0
  -29.2420  -10.4285   -6.8966 O   0  0  0  0  0  0  0  0  0  0  0  0
  -24.4100  -11.9683   -7.3353 C   0  0  0  0  0  0  0  0  0  0  0  0
  -24.8932  -11.5483   -8.5854 C   0  0  0  0  0  0  0  0  0  0  0  0
  -26.1784  -11.0608   -8.7631 C   0  0  0  0  0  0  0  0  0  0  0  0
  -26.5088  -10.5891   -9.9693 N   0  0  0  0  0  0  0  0  0  0  0  0
  -27.7197  -10.0370  -10.0899 C   0  0  0  0  0  0  0  0  0  0  0  0
  -28.6278   -9.9290   -9.1208 N   0  0  0  0  0  0  0  0  0  0  0  0
  -28.3008  -10.4807   -7.9337 C   0  0  0  0  0  0  0  0  0  0  0  0
  -27.0522  -11.0545   -7.6740 C   0  0  0  0  0  0  0  0  0  0  0  0
  -26.6216  -11.5940   -6.4414 C   0  0  0  0  0  0  0  0  0  0  0  0
  -25.3012  -12.0318   -6.2563 C   0  0  0  0  0  0  0  0  0  0  0  0
  -22.1553  -11.2526   -7.1419 C   0  0  0  0  0  0  0  0  0  0  0  0
  -23.0974  -12.3287   -7.1641 O   0  0  0  0  0  0  0  0  0  0  0  0
  -25.0803  -12.4625   -4.9779 O   0  0  0  0  0  0  0  0  0  0  0  0
  -24.5499  -11.5584   -4.0219 C   0  0  0  0  0  0  0  0  0  0  0  0
 32 33  1  0  0  0
 33 22  1  0  0  0
 22 23  1  0  0  0
 22 31  2  0  0  0
 23 24  2  0  0  0
 24 25  1  0  0  0
 24 29  1  0  0  0
 25 26  2  0  0  0
 26 27  1  0  0  0
 27 28  2  0  0  0
 28 21  1  0  0  0
 28 29  1  0  0  0
 21  1  1  0  0  0
  1  2  1  0  0  0
  1  6  2  0  0  0
  2  3  2  0  0  0
  3  4  1  0  0  0
  4  7  1  0  0  0
  4  5  2  0  0  0
  7  8  1  0  0  0
  7 11  1  0  0  0
  8  9  2  0  0  0
  8 10  1  0  0  0
 10 13  1  0  0  0
 10 12  1  0  0  0
 13 14  1  0  0  0
 13 19  2  0  0  0
 14 15  2  0  0  0
 15 16  1  0  0  0
 16 17  1  0  0  0
 16 18  2  0  0  0
 18 19  1  0  0  0
 19 20  1  0  0  0
  5  6  1  0  0  0
 29 30  2  0  0  0
 30 31  1  0  0  0
 31 34  1  0  0  0
 34 35  1  0  0  0
M  END
> <minimizedAffinity>
-8.06600

$$$$
