CHEMBL3965625


 37 42  0  0  0  0  0  0  0  0999 V2000
  -29.8738   -7.5431   -7.7338 C   0  0  0  0  0  0  0  0  0  0  0  0
  -29.0923   -8.4637   -8.4109 C   0  0  0  0  0  0  0  0  0  0  0  0
  -29.3377   -9.8524   -8.2922 C   0  0  0  0  0  0  0  0  0  0  0  0
  -28.4906  -10.8427   -8.7933 C   0  0  0  0  0  0  0  0  0  0  0  0
  -28.8211  -12.1425   -8.7858 N   0  0  0  0  0  0  0  0  0  0  0  0
  -29.9631  -12.4660   -8.1828 C   0  0  0  0  0  0  0  0  0  0  0  0
  -30.7824  -11.6104   -7.5574 N   0  0  0  0  0  0  0  0  0  0  0  0
  -30.4559  -10.3072   -7.6018 C   0  0  0  0  0  0  0  0  0  0  0  0
  -31.1623   -9.4012   -6.8437 C   0  0  0  0  0  0  0  0  0  0  0  0
  -30.8471   -8.0289   -6.8682 C   0  0  0  0  0  0  0  0  0  0  0  0
  -28.3459   -5.7376   -8.0195 C   0  0  0  0  0  0  0  0  0  0  0  0
  -29.6903   -6.1860   -7.8084 O   0  0  0  0  0  0  0  0  0  0  0  0
  -27.1585  -10.4365   -9.1049 N   0  0  0  0  0  0  0  0  0  0  0  0
  -27.2208   -9.4326   -9.2982 H   0  0  0  0  0  0  0  0  0  0  0  0
  -26.0190  -10.7390   -8.3449 C   0  0  0  0  0  0  0  0  0  0  0  0
  -25.1614  -11.7672   -8.7437 C   0  0  0  0  0  0  0  0  0  0  0  0
  -24.0813  -12.1363   -7.9404 C   0  0  0  0  0  0  0  0  0  0  0  0
  -23.8694  -11.5030   -6.7152 C   0  0  0  0  0  0  0  0  0  0  0  0
  -22.3901  -12.0754   -5.6771 Br  0  0  0  0  0  0  0  0  0  0  0  0
  -24.7384  -10.4941   -6.2933 C   0  0  0  0  0  0  0  0  0  0  0  0
  -24.5848   -9.6906   -4.7738 Cl  0  0  0  0  0  0  0  0  0  0  0  0
  -25.7973  -10.1123   -7.1053 C   0  0  0  0  0  0  0  0  0  0  0  0
  -31.4179   -7.2291   -5.9084 O   0  0  0  0  0  0  0  0  0  0  0  0
  -30.6336   -6.7731   -4.8796 C   0  0  0  0  0  0  0  0  0  0  0  0
  -29.4286   -7.2375   -4.5449 C   0  0  0  0  0  0  0  0  0  0  0  0
  -28.5708   -6.2417   -3.9790 O   0  0  0  0  0  0  0  0  0  0  0  0
  -29.2264   -5.1485   -4.6053 C   0  0  0  0  0  0  0  0  0  0  0  0
  -30.6986   -5.3861   -4.3644 C   0  0  0  0  0  0  0  0  0  0  0  0
  -31.3775   -4.4024   -5.1028 O   0  0  0  0  0  0  0  0  0  0  0  0
  -30.4573   -3.2927   -5.2011 C   0  0  0  0  0  0  0  0  0  0  0  0
  -29.0806   -3.6781   -4.4485 C   0  0  0  0  0  0  0  0  0  0  0  0
  -29.0503   -2.7863   -3.2754 C   0  0  0  0  0  0  0  0  0  0  0  0
  -29.0169   -1.5483   -4.1025 O   0  0  0  0  0  0  0  0  0  0  0  0
  -28.0041   -1.8044   -5.1097 C   0  0  0  0  0  0  0  0  0  0  0  0
  -27.0656   -0.6230   -4.8452 C   0  0  0  0  0  0  0  0  0  0  0  0
  -28.0370   -1.8623   -6.6554 C   0  0  0  0  0  0  0  0  0  0  0  0
  -27.7775   -3.2076   -4.9504 O   0  0  0  0  0  0  0  0  0  0  0  0
 11 12  1  0  0  0
 12  1  1  0  0  0
  1  2  1  0  0  0
  1 10  2  0  0  0
  2  3  2  0  0  0
  3  4  1  0  0  0
  3  8  1  0  0  0
  4 13  1  0  0  0
  4  5  2  0  0  0
 13 15  1  0  0  0
 13 14  1  0  0  0
 15 16  1  0  0  0
 15 22  2  0  0  0
 16 17  2  0  0  0
 17 18  1  0  0  0
 18 19  1  0  0  0
 18 20  2  0  0  0
 20 21  1  0  0  0
 20 22  1  0  0  0
  5  6  1  0  0  0
  6  7  2  0  0  0
  7  8  1  0  0  0
  8  9  2  0  0  0
  9 10  1  0  0  0
 10 23  1  0  0  0
 23 24  1  0  0  0
 24 25  2  0  0  0
 24 28  1  0  0  0
 25 26  1  0  0  0
 26 27  1  0  0  0
 27 28  1  0  0  0
 27 31  1  0  0  0
 28 29  1  0  0  0
 29 30  1  0  0  0
 30 31  1  0  0  0
 31 32  1  0  0  0
 31 37  1  0  0  0
 32 33  1  0  0  0
 33 34  1  0  0  0
 34 37  1  0  0  0
 34 35  1  0  0  0
 34 36  1  0  0  0
M  END
> <minimizedAffinity>
-8.49780

$$$$
