CHEMBL1221633


 32 35  0  0  0  0  0  0  0  0999 V2000
  -17.8815    1.0847  -14.9954 C   0  0  0  0  0  0  0  0  0  0  0  0
  -17.1449    0.1790  -14.2593 C   0  0  0  0  0  0  0  0  0  0  0  0
  -15.8270    0.5618  -14.2812 N   0  0  0  0  0  0  0  0  0  0  0  0
  -15.6823    1.7166  -15.0197 C   0  0  0  0  0  0  0  0  0  0  0  0
  -14.5448    2.4876  -15.3177 C   0  0  0  0  0  0  0  0  0  0  0  0
  -14.7040    3.6212  -16.1181 C   0  0  0  0  0  0  0  0  0  0  0  0
  -15.9564    3.9798  -16.6053 C   0  0  0  0  0  0  0  0  0  0  0  0
  -17.0870    3.2122  -16.2987 C   0  0  0  0  0  0  0  0  0  0  0  0
  -16.9560    2.0604  -15.4872 C   0  0  0  0  0  0  0  0  0  0  0  0
  -19.3594    1.0133  -15.2335 C   0  0  0  0  0  0  0  0  0  0  0  0
  -20.1147    2.1950  -14.6227 C   0  0  0  0  0  0  0  0  0  0  0  0
  -22.4072    2.6298  -14.0330 O   0  0  0  0  0  0  0  0  0  0  0  0
  -21.5178    1.8005  -14.1898 C   0  0  0  0  0  0  0  0  0  0  0  0
  -21.6369    0.4316  -13.9799 N   0  0  0  0  0  0  0  0  0  0  0  0
  -20.7769   -0.1039  -13.9878 H   0  0  0  0  0  0  0  0  0  0  0  0
  -22.7984   -0.2492  -13.5512 C   0  0  0  0  0  0  0  0  0  0  0  0
  -23.8159   -0.6569  -14.4202 C   0  0  0  0  0  0  0  0  0  0  0  0
  -24.9951   -1.2279  -13.9274 C   0  0  0  0  0  0  0  0  0  0  0  0
  -25.1556   -1.3977  -12.5493 C   0  0  0  0  0  0  0  0  0  0  0  0
  -24.1183   -1.0621  -11.6718 C   0  0  0  0  0  0  0  0  0  0  0  0
  -22.9384   -0.5010  -12.1790 C   0  0  0  0  0  0  0  0  0  0  0  0
  -26.4308   -1.8996  -12.0215 N   0  0  0  0  0  0  0  0  0  0  0  0
  -27.3586   -2.0782  -12.8236 O   0  0  0  0  0  0  0  0  0  0  0  0
  -26.5085   -2.1013  -10.8010 O   0  0  0  0  0  0  0  0  0  0  0  0
  -14.7473   -0.1801  -13.6328 C   0  0  0  0  0  0  0  0  0  0  0  0
  -15.2178   -1.5389  -13.1678 C   0  0  0  0  0  0  0  0  0  0  0  0
  -15.3598   -2.5960  -14.0817 C   0  0  0  0  0  0  0  0  0  0  0  0
  -15.8843   -3.8231  -13.6746 C   0  0  0  0  0  0  0  0  0  0  0  0
  -16.2516   -4.0093  -12.3452 C   0  0  0  0  0  0  0  0  0  0  0  0
  -16.9511   -5.5023  -11.8552 Cl  0  0  0  0  0  0  0  0  0  0  0  0
  -16.0700   -2.9890  -11.4143 C   0  0  0  0  0  0  0  0  0  0  0  0
  -15.5513   -1.7578  -11.8230 C   0  0  0  0  0  0  0  0  0  0  0  0
 12 13  2  0  0  0
 13 11  1  0  0  0
 13 14  1  0  0  0
 11 10  1  0  0  0
 10  1  1  0  0  0
  1  2  2  0  0  0
  1  9  1  0  0  0
  2  3  1  0  0  0
  3 25  1  0  0  0
  3  4  1  0  0  0
 25 26  1  0  0  0
 26 27  1  0  0  0
 26 32  2  0  0  0
 27 28  2  0  0  0
 28 29  1  0  0  0
 29 30  1  0  0  0
 29 31  2  0  0  0
 31 32  1  0  0  0
  4  5  1  0  0  0
  4  9  2  0  0  0
  5  6  2  0  0  0
  6  7  1  0  0  0
  7  8  2  0  0  0
  8  9  1  0  0  0
 14 16  1  0  0  0
 14 15  1  0  0  0
 16 17  1  0  0  0
 16 21  2  0  0  0
 17 18  2  0  0  0
 18 19  1  0  0  0
 19 22  1  0  0  0
 19 20  2  0  0  0
 22 23  2  0  0  0
 22 24  1  0  0  0
 20 21  1  0  0  0
M  CHG 1  22   1
M  CHG 1  24  -1
M  END
> <minimizedAffinity>
-10.49029

$$$$
