CHEMBL3671543


 37 39  0  0  0  0  0  0  0  0999 V2000
  -29.7113   -4.9762   -7.0332 C   0  0  0  0  0  0  0  0  0  0  0  0
  -28.9990   -4.2465   -7.9831 C   0  0  0  0  0  0  0  0  0  0  0  0
  -28.5007   -2.9614   -7.6766 C   0  0  0  0  0  0  0  0  0  0  0  0
  -27.8951   -2.0978   -8.6029 C   0  0  0  0  0  0  0  0  0  0  0  0
  -27.4399   -0.8805   -8.2443 N   0  0  0  0  0  0  0  0  0  0  0  0
  -27.6121   -0.5155   -6.9765 C   0  0  0  0  0  0  0  0  0  0  0  0
  -28.2152   -1.2356   -6.0266 N   0  0  0  0  0  0  0  0  0  0  0  0
  -28.6659   -2.4422   -6.3831 C   0  0  0  0  0  0  0  0  0  0  0  0
  -29.3390   -3.2086   -5.4377 C   0  0  0  0  0  0  0  0  0  0  0  0
  -29.8504   -4.4795   -5.7281 C   0  0  0  0  0  0  0  0  0  0  0  0
  -29.6345   -7.3631   -7.2859 C   0  0  0  0  0  0  0  0  0  0  0  0
  -28.5036   -7.4871   -6.8359 O   0  0  0  0  0  0  0  0  0  0  0  0
  -30.3266   -6.1728   -7.4529 N   0  0  0  0  0  0  0  0  0  0  0  0
  -31.3063   -6.2637   -7.2097 H   0  0  0  0  0  0  0  0  0  0  0  0
  -31.7928   -8.5182   -7.5300 C   0  0  0  0  0  0  0  0  0  0  0  0
  -30.4638   -8.5309   -7.6848 C   0  0  0  0  0  0  0  0  0  0  0  0
  -27.8108   -2.4672   -9.9732 N   0  0  0  0  0  0  0  0  0  0  0  0
  -27.9095   -3.4726  -10.0874 H   0  0  0  0  0  0  0  0  0  0  0  0
  -26.8729   -1.9155  -10.8772 C   0  0  0  0  0  0  0  0  0  0  0  0
  -25.5901   -1.5473  -10.4457 C   0  0  0  0  0  0  0  0  0  0  0  0
  -24.6245   -1.1140  -11.3550 C   0  0  0  0  0  0  0  0  0  0  0  0
  -24.9459   -1.0218  -12.7072 C   0  0  0  0  0  0  0  0  0  0  0  0
  -23.6091   -0.5278  -13.9483 Br  0  0  0  0  0  0  0  0  0  0  0  0
  -26.2339   -1.3120  -13.1502 C   0  0  0  0  0  0  0  0  0  0  0  0
  -27.1869   -1.7452  -12.2306 C   0  0  0  0  0  0  0  0  0  0  0  0
  -28.4218   -2.0438  -12.6646 F   0  0  0  0  0  0  0  0  0  0  0  0
  -30.4417   -5.1127   -4.6592 O   0  0  0  0  0  0  0  0  0  0  0  0
  -29.5412   -5.5916   -3.6556 C   0  0  0  0  0  0  0  0  0  0  0  0
  -29.6138   -7.1191   -3.5370 C   0  0  0  0  0  0  0  0  0  0  0  0
  -28.3236   -7.7430   -3.8186 N   0  0  0  0  0  0  0  0  0  0  0  0
  -28.1444   -9.0943   -3.5969 C   0  0  0  0  0  0  0  0  0  0  0  0
  -29.0281   -9.8819   -3.2987 O   0  0  0  0  0  0  0  0  0  0  0  0
  -27.5168   -7.1501   -3.9669 H   0  0  0  0  0  0  0  0  0  0  0  0
  -26.7246   -9.5898   -3.7334 C   0  0  0  0  0  0  0  0  0  0  0  0
  -25.8287   -8.8127   -4.2460 N   0  0  0  0  0  0  0  0  0  0  0  0
  -24.5849   -9.4612   -4.2185 O   0  0  0  0  0  0  0  0  0  0  0  0
  -24.5964  -10.3991   -3.1447 C   0  0  0  0  0  0  0  0  0  0  0  0
 15 16  2  0  0  0
 16 11  1  0  0  0
 11 12  2  0  0  0
 11 13  1  0  0  0
 13  1  1  0  0  0
 13 14  1  0  0  0
  1  2  1  0  0  0
  1 10  2  0  0  0
  2  3  2  0  0  0
  3  4  1  0  0  0
  3  8  1  0  0  0
  4 17  1  0  0  0
  4  5  2  0  0  0
 17 19  1  0  0  0
 17 18  1  0  0  0
 19 20  1  0  0  0
 19 25  2  0  0  0
 20 21  2  0  0  0
 21 22  1  0  0  0
 22 23  1  0  0  0
 22 24  2  0  0  0
 24 25  1  0  0  0
 25 26  1  0  0  0
  5  6  1  0  0  0
  6  7  2  0  0  0
  7  8  1  0  0  0
  8  9  2  0  0  0
  9 10  1  0  0  0
 10 27  1  0  0  0
 27 28  1  0  0  0
 28 29  1  0  0  0
 29 30  1  0  0  0
 30 31  1  0  0  0
 30 33  1  0  0  0
 31 32  2  0  0  0
 31 34  1  0  0  0
 34 35  2  0  0  0
 35 36  1  0  0  0
 36 37  1  0  0  0
M  END
> <minimizedAffinity>
-8.97182

$$$$
