CHEMBL194842


 38 42  0  0  0  0  0  0  0  0999 V2000
  -15.1632   -2.7033  -13.1705 C   0  0  0  0  0  0  0  0  0  0  0  0
  -13.8692   -2.9158  -13.6328 C   0  0  0  0  0  0  0  0  0  0  0  0
  -12.9560   -3.6594  -12.8682 C   0  0  0  0  0  0  0  0  0  0  0  0
  -13.3369   -4.3241  -11.6930 C   0  0  0  0  0  0  0  0  0  0  0  0
  -14.6517   -4.0938  -11.2994 C   0  0  0  0  0  0  0  0  0  0  0  0
  -15.5318   -3.2231  -11.9479 C   0  0  0  0  0  0  0  0  0  0  0  0
  -12.4448   -5.2386  -10.9016 C   0  0  0  0  0  0  0  0  0  0  0  0
  -11.9355   -6.4419  -11.4554 C   0  0  0  0  0  0  0  0  0  0  0  0
  -10.7698   -7.1521  -10.4175 S   0  0  0  0  0  0  0  0  0  0  0  0
  -11.2093   -6.1826   -9.1145 C   0  0  0  0  0  0  0  0  0  0  0  0
  -10.6966   -6.4946   -7.9128 N   0  0  0  0  0  0  0  0  0  0  0  0
  -11.0345   -5.6365   -6.9671 C   0  0  0  0  0  0  0  0  0  0  0  0
  -11.7465   -4.5243   -7.1298 N   0  0  0  0  0  0  0  0  0  0  0  0
  -12.2261   -4.2147   -8.3537 C   0  0  0  0  0  0  0  0  0  0  0  0
  -12.8599   -2.9665   -8.3160 N   0  0  0  0  0  0  0  0  0  0  0  0
  -12.0340   -5.1136   -9.4506 C   0  0  0  0  0  0  0  0  0  0  0  0
  -12.6270   -2.6097   -7.3861 H   0  0  0  0  0  0  0  0  0  0  0  0
  -13.8654   -3.0732   -8.3059 H   0  0  0  0  0  0  0  0  0  0  0  0
  -12.1667   -7.0884  -12.8187 C   0  0  0  0  0  0  0  0  0  0  0  0
  -13.3116   -8.0050  -13.0132 N   0  0  0  0  0  0  0  0  0  0  0  0
  -13.1827   -8.7171  -14.3146 C   0  0  0  0  0  0  0  0  0  0  0  0
  -13.4937   -7.8379  -15.5406 C   0  0  0  0  0  0  0  0  0  0  0  0
  -14.8098   -7.2835  -15.4562 O   0  0  0  0  0  0  0  0  0  0  0  0
  -14.9862   -6.5374  -14.2477 C   0  0  0  0  0  0  0  0  0  0  0  0
  -14.6406   -7.3617  -12.9987 C   0  0  0  0  0  0  0  0  0  0  0  0
  -17.1756   -0.2514  -14.8550 N   0  0  0  0  0  0  0  0  0  0  0  0
  -16.2725   -0.7229  -13.9232 C   0  0  0  0  0  0  0  0  0  0  0  0
  -15.6183   -0.0261  -13.1556 O   0  0  0  0  0  0  0  0  0  0  0  0
  -16.1526   -2.1102  -13.9824 N   0  0  0  0  0  0  0  0  0  0  0  0
  -17.8198   -0.9294  -15.2337 H   0  0  0  0  0  0  0  0  0  0  0  0
  -16.2013   -2.4598  -14.9296 H   0  0  0  0  0  0  0  0  0  0  0  0
  -20.4260    3.4434  -15.0865 C   0  0  0  0  0  0  0  0  0  0  0  0
  -19.0241    2.9375  -15.2709 C   0  0  0  0  0  0  0  0  0  0  0  0
  -18.0061    3.8016  -15.6857 C   0  0  0  0  0  0  0  0  0  0  0  0
  -16.7104    3.3262  -15.8473 C   0  0  0  0  0  0  0  0  0  0  0  0
  -16.4190    1.9875  -15.5894 C   0  0  0  0  0  0  0  0  0  0  0  0
  -17.4147    1.1095  -15.1548 C   0  0  0  0  0  0  0  0  0  0  0  0
  -18.7202    1.5885  -15.0174 C   0  0  0  0  0  0  0  0  0  0  0  0
 32 33  1  0  0  0
 33 34  1  0  0  0
 33 38  2  0  0  0
 34 35  2  0  0  0
 35 36  1  0  0  0
 36 37  2  0  0  0
 37 26  1  0  0  0
 37 38  1  0  0  0
 26 27  1  0  0  0
 26 30  1  0  0  0
 27 28  2  0  0  0
 27 29  1  0  0  0
 29  1  1  0  0  0
 29 31  1  0  0  0
  1  2  1  0  0  0
  1  6  2  0  0  0
  2  3  2  0  0  0
  3  4  1  0  0  0
  4  7  1  0  0  0
  4  5  2  0  0  0
  7  8  2  0  0  0
  7 16  1  0  0  0
  8 19  1  0  0  0
  8  9  1  0  0  0
 19 20  1  0  0  0
 20 21  1  0  0  0
 20 25  1  0  0  0
 21 22  1  0  0  0
 22 23  1  0  0  0
 23 24  1  0  0  0
 24 25  1  0  0  0
  9 10  1  0  0  0
 10 11  1  0  0  0
 10 16  2  0  0  0
 11 12  2  0  0  0
 12 13  1  0  0  0
 13 14  2  0  0  0
 14 15  1  0  0  0
 14 16  1  0  0  0
 15 17  1  0  0  0
 15 18  1  0  0  0
  5  6  1  0  0  0
M  END
> <minimizedAffinity>
-9.06775

$$$$
