CHEMBL4091355


 31 34  0  0  0  0  0  0  0  0999 V2000
  -29.3583   -5.1593   -6.6040 C   0  0  0  0  0  0  0  0  0  0  0  0
  -28.2829   -5.5640   -5.8613 N   0  0  0  0  0  0  0  0  0  0  0  0
  -28.5023   -6.6058   -5.0358 C   0  0  0  0  0  0  0  0  0  0  0  0
  -27.4150   -7.2539   -4.4776 N   0  0  0  0  0  0  0  0  0  0  0  0
  -29.7104   -7.1370   -4.7713 N   0  0  0  0  0  0  0  0  0  0  0  0
  -30.6001   -6.8241   -5.7459 C   0  0  0  0  0  0  0  0  0  0  0  0
  -31.6785   -7.5923   -6.1401 N   0  0  0  0  0  0  0  0  0  0  0  0
  -31.0281   -8.4377   -7.0365 C   0  0  0  0  0  0  0  0  0  0  0  0
  -31.0868   -9.8256   -7.1117 C   0  0  0  0  0  0  0  0  0  0  0  0
  -30.0925  -10.4751   -7.8431 C   0  0  0  0  0  0  0  0  0  0  0  0
  -29.9526  -11.9582   -7.6256 C   0  0  0  0  0  0  0  0  0  0  0  0
  -29.2457   -9.7022   -8.6580 C   0  0  0  0  0  0  0  0  0  0  0  0
  -28.3880  -10.3183   -9.5250 O   0  0  0  0  0  0  0  0  0  0  0  0
  -29.2209   -8.2777   -8.5863 C   0  0  0  0  0  0  0  0  0  0  0  0
  -30.0742   -7.6009   -7.6657 C   0  0  0  0  0  0  0  0  0  0  0  0
  -30.2014   -6.2580   -6.9693 C   0  0  0  0  0  0  0  0  0  0  0  0
  -26.7348   -6.6059   -4.1175 H   0  0  0  0  0  0  0  0  0  0  0  0
  -27.7372   -7.9933   -3.8701 H   0  0  0  0  0  0  0  0  0  0  0  0
  -32.5028   -7.1308   -6.4837 H   0  0  0  0  0  0  0  0  0  0  0  0
  -28.6755  -11.2434   -9.6457 H   0  0  0  0  0  0  0  0  0  0  0  0
  -29.9012   -3.9278   -6.1311 N   0  0  0  0  0  0  0  0  0  0  0  0
  -30.8676   -4.1171   -5.8776 H   0  0  0  0  0  0  0  0  0  0  0  0
  -29.2007   -3.1165   -5.1309 C   0  0  0  0  0  0  0  0  0  0  0  0
  -28.1776   -1.3191   -6.6762 C   0  0  0  0  0  0  0  0  0  0  0  0
  -28.0626    0.0159   -7.1235 C   0  0  0  0  0  0  0  0  0  0  0  0
  -28.7666    1.0389   -6.4996 C   0  0  0  0  0  0  0  0  0  0  0  0
  -29.5872    0.7385   -5.4218 C   0  0  0  0  0  0  0  0  0  0  0  0
  -29.7109   -0.5902   -4.9732 C   0  0  0  0  0  0  0  0  0  0  0  0
  -28.9938   -1.6433   -5.5621 C   0  0  0  0  0  0  0  0  0  0  0  0
  -27.7023   -2.4674   -8.7116 C   0  0  0  0  0  0  0  0  0  0  0  0
  -27.5278   -2.3604   -7.2999 O   0  0  0  0  0  0  0  0  0  0  0  0
 30 31  1  0  0  0
 31 24  1  0  0  0
 24 25  1  0  0  0
 24 29  2  0  0  0
 25 26  2  0  0  0
 26 27  1  0  0  0
 27 28  2  0  0  0
 28 29  1  0  0  0
 29 23  1  0  0  0
 23 21  1  0  0  0
 21  1  1  0  0  0
 21 22  1  0  0  0
  1  2  1  0  0  0
  1 16  2  0  0  0
  2  3  2  0  0  0
  3  4  1  0  0  0
  3  5  1  0  0  0
  4 17  1  0  0  0
  4 18  1  0  0  0
  5  6  2  0  0  0
  6  7  1  0  0  0
  6 16  1  0  0  0
  7  8  1  0  0  0
  7 19  1  0  0  0
  8  9  1  0  0  0
  8 15  2  0  0  0
  9 10  2  0  0  0
 10 11  1  0  0  0
 10 12  1  0  0  0
 12 13  1  0  0  0
 12 14  2  0  0  0
 13 20  1  0  0  0
 14 15  1  0  0  0
 15 16  1  0  0  0
M  END
> <minimizedAffinity>
-8.93633

$$$$
