CHEMBL3819389


 46 50  0  0  0  0  0  0  0  0999 V2000
  -16.0379   -0.3432  -14.3452 C   0  0  0  0  0  0  0  0  0  0  0  0
  -14.7467    0.1372  -14.5526 C   0  0  0  0  0  0  0  0  0  0  0  0
  -14.4990    1.4063  -15.0643 C   0  0  0  0  0  0  0  0  0  0  0  0
  -15.5912    2.2032  -15.4092 C   0  0  0  0  0  0  0  0  0  0  0  0
  -16.8976    1.7445  -15.2649 C   0  0  0  0  0  0  0  0  0  0  0  0
  -17.6901    2.8336  -15.6836 C   0  0  0  0  0  0  0  0  0  0  0  0
  -16.9746    3.9074  -16.0285 N   0  0  0  0  0  0  0  0  0  0  0  0
  -15.6768    3.5052  -15.8870 N   0  0  0  0  0  0  0  0  0  0  0  0
  -17.1307    0.4429  -14.7547 C   0  0  0  0  0  0  0  0  0  0  0  0
  -15.8602   -3.6864  -12.8628 N   0  0  0  0  0  0  0  0  0  0  0  0
  -15.3649   -2.6343  -13.6123 C   0  0  0  0  0  0  0  0  0  0  0  0
  -14.2754   -2.6568  -14.1690 O   0  0  0  0  0  0  0  0  0  0  0  0
  -16.2810   -1.5815  -13.6928 N   0  0  0  0  0  0  0  0  0  0  0  0
  -16.8641   -3.7756  -12.8897 H   0  0  0  0  0  0  0  0  0  0  0  0
  -17.0829   -1.6218  -13.0821 H   0  0  0  0  0  0  0  0  0  0  0  0
  -13.7159   -7.2784  -12.0687 C   0  0  0  0  0  0  0  0  0  0  0  0
  -14.0491   -6.4355  -11.0028 C   0  0  0  0  0  0  0  0  0  0  0  0
  -14.7555   -5.2368  -11.1959 C   0  0  0  0  0  0  0  0  0  0  0  0
  -15.1306   -4.8590  -12.5043 C   0  0  0  0  0  0  0  0  0  0  0  0
  -14.8156   -5.7221  -13.5647 C   0  0  0  0  0  0  0  0  0  0  0  0
  -14.1175   -6.9188  -13.3556 C   0  0  0  0  0  0  0  0  0  0  0  0
  -13.8977   -7.9146  -14.7485 Cl  0  0  0  0  0  0  0  0  0  0  0  0
  -11.7526   -8.4231  -11.3663 C   0  0  0  0  0  0  0  0  0  0  0  0
  -13.1414   -8.4537  -11.6659 O   0  0  0  0  0  0  0  0  0  0  0  0
  -15.2221   -4.5344  -10.1124 O   0  0  0  0  0  0  0  0  0  0  0  0
  -14.2904   -3.6271   -9.5202 C   0  0  0  0  0  0  0  0  0  0  0  0
  -14.5813    4.3849  -16.1696 C   0  0  0  0  0  0  0  0  0  0  0  0
  -13.5487    4.4744  -15.2620 C   0  0  0  0  0  0  0  0  0  0  0  0
  -12.4882    5.2445  -15.6610 C   0  0  0  0  0  0  0  0  0  0  0  0
  -12.4365    5.8797  -16.8443 N   0  0  0  0  0  0  0  0  0  0  0  0
  -13.5030    5.7907  -17.6510 C   0  0  0  0  0  0  0  0  0  0  0  0
  -14.5845    5.0695  -17.3418 N   0  0  0  0  0  0  0  0  0  0  0  0
  -13.5252    6.4915  -18.8532 N   0  0  0  0  0  0  0  0  0  0  0  0
  -13.1419    5.9703  -19.6259 H   0  0  0  0  0  0  0  0  0  0  0  0
  -13.9052    7.8202  -19.0727 C   0  0  0  0  0  0  0  0  0  0  0  0
  -15.1994    8.1442  -19.4880 C   0  0  0  0  0  0  0  0  0  0  0  0
  -15.5750    9.4519  -19.8248 C   0  0  0  0  0  0  0  0  0  0  0  0
  -14.6110   10.4843  -19.7723 C   0  0  0  0  0  0  0  0  0  0  0  0
  -13.3007   10.1675  -19.3389 C   0  0  0  0  0  0  0  0  0  0  0  0
  -12.9731    8.8480  -18.9810 C   0  0  0  0  0  0  0  0  0  0  0  0
  -16.8565    9.7592  -20.2087 O   0  0  0  0  0  0  0  0  0  0  0  0
  -17.2410    9.5289  -21.5587 C   0  0  0  0  0  0  0  0  0  0  0  0
  -14.8320   11.7964  -20.1015 O   0  0  0  0  0  0  0  0  0  0  0  0
  -14.5940   12.2654  -21.4178 C   0  0  0  0  0  0  0  0  0  0  0  0
  -12.2106   10.9964  -19.2146 O   0  0  0  0  0  0  0  0  0  0  0  0
  -11.8211   11.4512  -17.9287 C   0  0  0  0  0  0  0  0  0  0  0  0
 23 24  1  0  0  0
 24 16  1  0  0  0
 16 17  1  0  0  0
 16 21  2  0  0  0
 17 18  2  0  0  0
 18 25  1  0  0  0
 18 19  1  0  0  0
 25 26  1  0  0  0
 19 10  1  0  0  0
 19 20  2  0  0  0
 10 11  1  0  0  0
 10 14  1  0  0  0
 11 12  2  0  0  0
 11 13  1  0  0  0
 13  1  1  0  0  0
 13 15  1  0  0  0
  1  2  1  0  0  0
  1  9  2  0  0  0
  2  3  2  0  0  0
  3  4  1  0  0  0
  4  5  2  0  0  0
  4  8  1  0  0  0
  5  6  1  0  0  0
  5  9  1  0  0  0
  6  7  2  0  0  0
  7  8  1  0  0  0
  8 27  1  0  0  0
 27 28  1  0  0  0
 27 32  2  0  0  0
 28 29  2  0  0  0
 29 30  1  0  0  0
 30 31  2  0  0  0
 31 33  1  0  0  0
 31 32  1  0  0  0
 33 35  1  0  0  0
 33 34  1  0  0  0
 35 36  1  0  0  0
 35 40  2  0  0  0
 36 37  2  0  0  0
 37 41  1  0  0  0
 37 38  1  0  0  0
 41 42  1  0  0  0
 38 43  1  0  0  0
 38 39  2  0  0  0
 43 44  1  0  0  0
 39 45  1  0  0  0
 39 40  1  0  0  0
 45 46  1  0  0  0
 20 21  1  0  0  0
 21 22  1  0  0  0
M  END
> <minimizedAffinity>
-7.50410

$$$$
