CHEMBL387385


 35 38  0  0  0  0  0  0  0  0999 V2000
  -29.1829   -5.9620   -6.0513 C   0  0  0  0  0  0  0  0  0  0  0  0
  -30.2971   -6.7860   -6.1171 C   0  0  0  0  0  0  0  0  0  0  0  0
  -30.1619   -7.6271   -7.2536 C   0  0  0  0  0  0  0  0  0  0  0  0
  -28.9761   -7.2847   -7.8644 C   0  0  0  0  0  0  0  0  0  0  0  0
  -28.4370   -6.2290   -7.1798 N   0  0  0  0  0  0  0  0  0  0  0  0
  -27.5776   -5.7450   -7.4138 H   0  0  0  0  0  0  0  0  0  0  0  0
  -31.1226   -8.6774   -7.6104 C   0  0  0  0  0  0  0  0  0  0  0  0
  -32.4097   -8.5846   -7.2418 N   0  0  0  0  0  0  0  0  0  0  0  0
  -32.9503   -9.7337   -7.6665 N   0  0  0  0  0  0  0  0  0  0  0  0
  -32.0738  -10.5388   -8.3302 C   0  0  0  0  0  0  0  0  0  0  0  0
  -30.8589   -9.8799   -8.3325 C   0  0  0  0  0  0  0  0  0  0  0  0
  -33.9313   -9.9038   -7.4694 H   0  0  0  0  0  0  0  0  0  0  0  0
  -29.6639  -10.4069   -8.9770 C   0  0  0  0  0  0  0  0  0  0  0  0
  -28.8969  -11.4083   -8.3623 C   0  0  0  0  0  0  0  0  0  0  0  0
  -27.7186  -11.8704   -8.9563 C   0  0  0  0  0  0  0  0  0  0  0  0
  -27.2846  -11.3238  -10.1626 C   0  0  0  0  0  0  0  0  0  0  0  0
  -28.0490  -10.3420  -10.7861 C   0  0  0  0  0  0  0  0  0  0  0  0
  -27.4988   -9.6335  -12.2549 Cl  0  0  0  0  0  0  0  0  0  0  0  0
  -29.2450   -9.9067  -10.2169 C   0  0  0  0  0  0  0  0  0  0  0  0
  -27.6953   -5.0994   -4.4541 O   0  0  0  0  0  0  0  0  0  0  0  0
  -28.7495   -4.9937   -5.0699 C   0  0  0  0  0  0  0  0  0  0  0  0
  -29.6402   -3.9724   -4.8475 N   0  0  0  0  0  0  0  0  0  0  0  0
  -30.5283   -3.9779   -5.3282 H   0  0  0  0  0  0  0  0  0  0  0  0
  -29.4319   -2.9628   -3.8112 C   0  0  0  0  0  0  0  0  0  0  0  0
  -29.1311   -1.6277   -4.4901 C   0  0  0  0  0  0  0  0  0  0  0  0
  -27.7853   -1.2820   -4.7405 C   0  0  0  0  0  0  0  0  0  0  0  0
  -27.4557   -0.1246   -5.4427 C   0  0  0  0  0  0  0  0  0  0  0  0
  -28.4644    0.7202   -5.8865 C   0  0  0  0  0  0  0  0  0  0  0  0
  -28.1281    1.8126   -6.5881 F   0  0  0  0  0  0  0  0  0  0  0  0
  -29.7973    0.4307   -5.6120 C   0  0  0  0  0  0  0  0  0  0  0  0
  -31.0501    1.4854   -6.1425 Cl  0  0  0  0  0  0  0  0  0  0  0  0
  -30.1290   -0.7316   -4.9122 C   0  0  0  0  0  0  0  0  0  0  0  0
  -30.6321   -2.9808   -2.8288 C   0  0  0  0  0  0  0  0  0  0  0  0
  -31.2953   -4.2498   -2.8104 O   0  0  0  0  0  0  0  0  0  0  0  0
  -30.6147   -4.9237   -2.6388 H   0  0  0  0  0  0  0  0  0  0  0  0
 20 21  2  0  0  0
 21 22  1  0  0  0
 21  1  1  0  0  0
 22 23  1  0  0  0
 24 25  1  0  0  0
 24 33  1  0  0  0
 24 22  1  0  0  0
 33 34  1  0  0  0
 34 35  1  0  0  0
 25 26  1  0  0  0
 25 32  2  0  0  0
 26 27  2  0  0  0
 27 28  1  0  0  0
 28 29  1  0  0  0
 28 30  2  0  0  0
 30 31  1  0  0  0
 30 32  1  0  0  0
  1  2  2  0  0  0
  1  5  1  0  0  0
  2  3  1  0  0  0
  3  7  1  0  0  0
  3  4  2  0  0  0
  7  8  2  0  0  0
  7 11  1  0  0  0
  8  9  1  0  0  0
  9 10  1  0  0  0
  9 12  1  0  0  0
 10 11  2  0  0  0
 11 13  1  0  0  0
 13 14  1  0  0  0
 13 19  2  0  0  0
 14 15  2  0  0  0
 15 16  1  0  0  0
 16 17  2  0  0  0
 17 18  1  0  0  0
 17 19  1  0  0  0
  4  5  1  0  0  0
  5  6  1  0  0  0
M  END
> <minimizedAffinity>
-9.75755

$$$$
