CHEMBL3690460


 33 36  0  0  0  0  0  0  0  0999 V2000
  -17.5581    1.6841  -15.2550 C   0  0  0  0  0  0  0  0  0  0  0  0
  -17.7411    3.0677  -15.3476 C   0  0  0  0  0  0  0  0  0  0  0  0
  -19.0010    3.6351  -15.2188 C   0  0  0  0  0  0  0  0  0  0  0  0
  -20.1159    2.8203  -15.0801 C   0  0  0  0  0  0  0  0  0  0  0  0
  -19.9989    1.4291  -15.0852 C   0  0  0  0  0  0  0  0  0  0  0  0
  -18.7074    0.8669  -15.1402 C   0  0  0  0  0  0  0  0  0  0  0  0
  -14.0645   -1.7420  -13.2033 C   0  0  0  0  0  0  0  0  0  0  0  0
  -15.5055   -1.6333  -12.9300 C   0  0  0  0  0  0  0  0  0  0  0  0
  -16.2629   -0.7630  -13.6170 C   0  0  0  0  0  0  0  0  0  0  0  0
  -15.6763    0.0695  -14.5742 N   0  0  0  0  0  0  0  0  0  0  0  0
  -16.2024    1.1095  -15.3489 C   0  0  0  0  0  0  0  0  0  0  0  0
  -15.1355    1.4924  -16.1483 C   0  0  0  0  0  0  0  0  0  0  0  0
  -13.9940    0.7892  -15.8698 N   0  0  0  0  0  0  0  0  0  0  0  0
  -14.3277   -0.0375  -14.9046 C   0  0  0  0  0  0  0  0  0  0  0  0
  -13.5359   -0.9826  -14.1896 C   0  0  0  0  0  0  0  0  0  0  0  0
  -13.2294   -6.3042  -11.2202 C   0  0  0  0  0  0  0  0  0  0  0  0
  -12.7846   -4.9035  -11.5105 C   0  0  0  0  0  0  0  0  0  0  0  0
  -11.5440   -4.4312  -11.0904 C   0  0  0  0  0  0  0  0  0  0  0  0
  -11.1999   -3.1270  -11.3959 C   0  0  0  0  0  0  0  0  0  0  0  0
  -12.0000   -2.2722  -12.0716 N   0  0  0  0  0  0  0  0  0  0  0  0
  -13.2157   -2.7249  -12.4660 C   0  0  0  0  0  0  0  0  0  0  0  0
  -13.6250   -4.0358  -12.2194 C   0  0  0  0  0  0  0  0  0  0  0  0
  -21.1327    0.5753  -15.0489 N   0  0  0  0  0  0  0  0  0  0  0  0
  -21.9716    0.3919  -13.9649 C   0  0  0  0  0  0  0  0  0  0  0  0
  -21.8890    0.9244  -12.8643 O   0  0  0  0  0  0  0  0  0  0  0  0
  -22.9640   -0.5342  -14.2029 N   0  0  0  0  0  0  0  0  0  0  0  0
  -21.3671    0.0860  -15.8986 H   0  0  0  0  0  0  0  0  0  0  0  0
  -23.3113   -0.5965  -15.1491 H   0  0  0  0  0  0  0  0  0  0  0  0
  -23.9219   -0.8010  -13.1196 C   0  0  0  0  0  0  0  0  0  0  0  0
  -23.6258   -2.0204  -12.2291 C   0  0  0  0  0  0  0  0  0  0  0  0
  -22.6879   -1.7492  -11.2923 F   0  0  0  0  0  0  0  0  0  0  0  0
  -24.7498   -2.3846  -11.5604 F   0  0  0  0  0  0  0  0  0  0  0  0
  -23.2189   -3.0939  -12.9375 F   0  0  0  0  0  0  0  0  0  0  0  0
 16 17  1  0  0  0
 17 18  1  0  0  0
 17 22  2  0  0  0
 18 19  2  0  0  0
 19 20  1  0  0  0
 20 21  2  0  0  0
 21  7  1  0  0  0
 21 22  1  0  0  0
  7  8  1  0  0  0
  7 15  2  0  0  0
  8  9  2  0  0  0
  9 10  1  0  0  0
 10 11  1  0  0  0
 10 14  1  0  0  0
 11  1  1  0  0  0
 11 12  2  0  0  0
  1  2  1  0  0  0
  1  6  2  0  0  0
  2  3  2  0  0  0
  3  4  1  0  0  0
  4  5  2  0  0  0
  5 23  1  0  0  0
  5  6  1  0  0  0
 23 24  1  0  0  0
 23 27  1  0  0  0
 24 25  2  0  0  0
 24 26  1  0  0  0
 26 29  1  0  0  0
 26 28  1  0  0  0
 29 30  1  0  0  0
 30 31  1  0  0  0
 30 32  1  0  0  0
 30 33  1  0  0  0
 12 13  1  0  0  0
 13 14  2  0  0  0
 14 15  1  0  0  0
M  END
> <minimizedAffinity>
-9.21038

$$$$
