CHEMBL419082


 32 36  0  0  0  0  0  0  0  0999 V2000
  -16.6526    0.2207  -12.6256 N   0  0  0  0  0  0  0  0  0  0  0  0
  -15.7004    0.8568  -13.4169 C   0  0  0  0  0  0  0  0  0  0  0  0
  -14.4212    0.6379  -13.0615 N   0  0  0  0  0  0  0  0  0  0  0  0
  -13.4462    1.1847  -13.8076 C   0  0  0  0  0  0  0  0  0  0  0  0
  -13.5779    1.9458  -14.9047 N   0  0  0  0  0  0  0  0  0  0  0  0
  -14.8672    2.1433  -15.2260 C   0  0  0  0  0  0  0  0  0  0  0  0
  -15.9806    1.6496  -14.5450 C   0  0  0  0  0  0  0  0  0  0  0  0
  -17.1363    2.1500  -15.2461 C   0  0  0  0  0  0  0  0  0  0  0  0
  -16.6719    2.8849  -16.3221 C   0  0  0  0  0  0  0  0  0  0  0  0
  -15.2983    2.8703  -16.3048 N   0  0  0  0  0  0  0  0  0  0  0  0
  -16.2168   -0.4727  -12.0295 H   0  0  0  0  0  0  0  0  0  0  0  0
  -17.4694   -0.0892  -13.1347 H   0  0  0  0  0  0  0  0  0  0  0  0
  -14.4736    3.5725  -17.2685 C   0  0  0  0  0  0  0  0  0  0  0  0
  -15.2381    4.3470  -18.3536 C   0  0  0  0  0  0  0  0  0  0  0  0
  -14.3544    5.5454  -18.7061 C   0  0  0  0  0  0  0  0  0  0  0  0
  -13.0342    5.3345  -17.9658 C   0  0  0  0  0  0  0  0  0  0  0  0
  -13.4366    4.5663  -16.7102 C   0  0  0  0  0  0  0  0  0  0  0  0
  -13.9185    5.5159  -15.7662 O   0  0  0  0  0  0  0  0  0  0  0  0
  -14.8967    5.4749  -15.7402 H   0  0  0  0  0  0  0  0  0  0  0  0
  -18.5647    2.0105  -14.9644 C   0  0  0  0  0  0  0  0  0  0  0  0
  -19.1964    0.7832  -15.1661 C   0  0  0  0  0  0  0  0  0  0  0  0
  -20.5655    0.6421  -14.9735 C   0  0  0  0  0  0  0  0  0  0  0  0
  -21.2935    1.6736  -14.3831 C   0  0  0  0  0  0  0  0  0  0  0  0
  -20.6826    2.9057  -14.1635 C   0  0  0  0  0  0  0  0  0  0  0  0
  -19.3290    3.0804  -14.4743 C   0  0  0  0  0  0  0  0  0  0  0  0
  -22.6050    1.5451  -13.9818 O   0  0  0  0  0  0  0  0  0  0  0  0
  -23.0148    0.3422  -13.4454 C   0  0  0  0  0  0  0  0  0  0  0  0
  -22.5929   -0.1514  -12.2023 C   0  0  0  0  0  0  0  0  0  0  0  0
  -22.9466   -1.4361  -11.7996 C   0  0  0  0  0  0  0  0  0  0  0  0
  -23.8014   -2.1905  -12.5929 C   0  0  0  0  0  0  0  0  0  0  0  0
  -24.3094   -1.6684  -13.7784 C   0  0  0  0  0  0  0  0  0  0  0  0
  -23.9128   -0.4023  -14.2105 C   0  0  0  0  0  0  0  0  0  0  0  0
  1  2  1  0  0  0
  1 11  1  0  0  0
  1 12  1  0  0  0
  2  3  1  0  0  0
  2  7  2  0  0  0
  3  4  2  0  0  0
  4  5  1  0  0  0
  5  6  2  0  0  0
  6  7  1  0  0  0
  6 10  1  0  0  0
  7  8  1  0  0  0
  8 20  1  0  0  0
  8  9  2  0  0  0
 20 21  1  0  0  0
 20 25  2  0  0  0
 21 22  2  0  0  0
 22 23  1  0  0  0
 23 26  1  0  0  0
 23 24  2  0  0  0
 26 27  1  0  0  0
 27 28  1  0  0  0
 27 32  2  0  0  0
 28 29  2  0  0  0
 29 30  1  0  0  0
 30 31  2  0  0  0
 31 32  1  0  0  0
 24 25  1  0  0  0
  9 10  1  0  0  0
 10 13  1  0  0  0
 13 14  1  0  0  0
 13 17  1  0  0  0
 14 15  1  0  0  0
 15 16  1  0  0  0
 16 17  1  0  0  0
 17 18  1  0  0  0
 18 19  1  0  0  0
M  END
> <minimizedAffinity>
-10.48375

$$$$
