CHEMBL3976600


 38 41  0  0  0  0  0  0  0  0999 V2000
  -27.2298   -0.8725   -5.1012 C   0  0  0  0  0  0  0  0  0  0  0  0
  -28.0522   -2.1322   -5.1744 C   0  0  0  0  0  0  0  0  0  0  0  0
  -28.1178   -2.9120   -4.0031 C   0  0  0  0  0  0  0  0  0  0  0  0
  -28.8888   -4.0685   -3.9412 C   0  0  0  0  0  0  0  0  0  0  0  0
  -29.6807   -4.4246   -5.0295 C   0  0  0  0  0  0  0  0  0  0  0  0
  -29.5813   -3.6935   -6.2175 C   0  0  0  0  0  0  0  0  0  0  0  0
  -28.7717   -2.5439   -6.3226 C   0  0  0  0  0  0  0  0  0  0  0  0
  -28.6432   -1.8245   -7.5592 N   0  0  0  0  0  0  0  0  0  0  0  0
  -27.9687   -2.2661   -8.6903 C   0  0  0  0  0  0  0  0  0  0  0  0
  -27.5203   -3.3954   -8.8559 O   0  0  0  0  0  0  0  0  0  0  0  0
  -27.7879   -1.2514   -9.6312 N   0  0  0  0  0  0  0  0  0  0  0  0
  -29.1665   -0.9698   -7.6439 H   0  0  0  0  0  0  0  0  0  0  0  0
  -27.6712   -0.3306   -9.2326 H   0  0  0  0  0  0  0  0  0  0  0  0
  -27.0714   -1.5066  -10.8340 C   0  0  0  0  0  0  0  0  0  0  0  0
  -27.7869   -1.7189  -12.0155 C   0  0  0  0  0  0  0  0  0  0  0  0
  -27.1057   -1.8580  -13.2292 C   0  0  0  0  0  0  0  0  0  0  0  0
  -25.7132   -1.8437  -13.2550 C   0  0  0  0  0  0  0  0  0  0  0  0
  -25.0930   -1.9566  -14.4378 F   0  0  0  0  0  0  0  0  0  0  0  0
  -24.9708   -1.7060  -12.0843 C   0  0  0  0  0  0  0  0  0  0  0  0
  -25.6662   -1.5205  -10.8731 C   0  0  0  0  0  0  0  0  0  0  0  0
  -23.4646   -1.7575  -12.1298 C   0  0  0  0  0  0  0  0  0  0  0  0
  -22.8518   -0.5030  -12.7340 C   0  0  0  0  0  0  0  0  0  0  0  0
  -22.9214   -1.9143  -10.8837 F   0  0  0  0  0  0  0  0  0  0  0  0
  -22.9974   -2.8269  -12.8422 F   0  0  0  0  0  0  0  0  0  0  0  0
  -30.5446   -5.5041   -5.0261 O   0  0  0  0  0  0  0  0  0  0  0  0
  -30.0297   -6.7809   -5.1422 C   0  0  0  0  0  0  0  0  0  0  0  0
  -29.3820   -7.4407   -4.1001 C   0  0  0  0  0  0  0  0  0  0  0  0
  -28.8244   -8.6685   -4.3690 C   0  0  0  0  0  0  0  0  0  0  0  0
  -28.9372   -9.2863   -5.5571 N   0  0  0  0  0  0  0  0  0  0  0  0
  -29.6394   -8.6952   -6.5397 C   0  0  0  0  0  0  0  0  0  0  0  0
  -30.2057   -7.4344   -6.3667 C   0  0  0  0  0  0  0  0  0  0  0  0
  -29.7990   -9.3602   -7.7678 N   0  0  0  0  0  0  0  0  0  0  0  0
  -28.9897   -9.1403   -8.8674 C   0  0  0  0  0  0  0  0  0  0  0  0
  -28.0587   -8.3532   -8.9585 O   0  0  0  0  0  0  0  0  0  0  0  0
  -30.5578  -10.0155   -7.8472 H   0  0  0  0  0  0  0  0  0  0  0  0
  -29.2945   -9.9307  -10.0982 C   0  0  0  0  0  0  0  0  0  0  0  0
  -28.7031  -11.3144  -10.2458 C   0  0  0  0  0  0  0  0  0  0  0  0
  -28.3729  -10.2433  -11.2464 C   0  0  0  0  0  0  0  0  0  0  0  0
  1  2  1  0  0  0
  2  3  1  0  0  0
  2  7  2  0  0  0
  3  4  2  0  0  0
  4  5  1  0  0  0
  5 25  1  0  0  0
  5  6  2  0  0  0
 25 26  1  0  0  0
 26 27  1  0  0  0
 26 31  2  0  0  0
 27 28  2  0  0  0
 28 29  1  0  0  0
 29 30  2  0  0  0
 30 32  1  0  0  0
 30 31  1  0  0  0
 32 33  1  0  0  0
 32 35  1  0  0  0
 33 34  2  0  0  0
 33 36  1  0  0  0
 36 37  1  0  0  0
 36 38  1  0  0  0
 37 38  1  0  0  0
  6  7  1  0  0  0
  7  8  1  0  0  0
  8  9  1  0  0  0
  8 12  1  0  0  0
  9 10  2  0  0  0
  9 11  1  0  0  0
 11 14  1  0  0  0
 11 13  1  0  0  0
 14 15  1  0  0  0
 14 20  2  0  0  0
 15 16  2  0  0  0
 16 17  1  0  0  0
 17 18  1  0  0  0
 17 19  2  0  0  0
 19 21  1  0  0  0
 19 20  1  0  0  0
 21 22  1  0  0  0
 21 23  1  0  0  0
 21 24  1  0  0  0
M  END
> <minimizedAffinity>
-11.05202

$$$$
