CHEMBL4555386


 28 31  0  0  0  0  0  0  0  0999 V2000
  -25.2772   -1.6541  -11.9120 C   0  0  0  0  0  0  0  0  0  0  0  0
  -25.6199   -1.8562  -13.2613 C   0  0  0  0  0  0  0  0  0  0  0  0
  -24.8950   -1.2638  -14.3017 C   0  0  0  0  0  0  0  0  0  0  0  0
  -23.8075   -0.5027  -13.9037 C   0  0  0  0  0  0  0  0  0  0  0  0
  -22.8995    0.1121  -14.7075 O   0  0  0  0  0  0  0  0  0  0  0  0
  -22.0220    0.7038  -13.8366 C   0  0  0  0  0  0  0  0  0  0  0  0
  -22.3171    0.5224  -12.5584 N   0  0  0  0  0  0  0  0  0  0  0  0
  -23.4532   -0.2490  -12.5904 C   0  0  0  0  0  0  0  0  0  0  0  0
  -24.2283   -0.7929  -11.5563 C   0  0  0  0  0  0  0  0  0  0  0  0
  -20.9149    1.4514  -14.4216 C   0  0  0  0  0  0  0  0  0  0  0  0
  -19.7990    0.7566  -14.9197 C   0  0  0  0  0  0  0  0  0  0  0  0
  -18.6986    1.4438  -15.4488 C   0  0  0  0  0  0  0  0  0  0  0  0
  -18.7038    2.8357  -15.4943 C   0  0  0  0  0  0  0  0  0  0  0  0
  -19.8086    3.5389  -15.0198 C   0  0  0  0  0  0  0  0  0  0  0  0
  -20.8999    2.8491  -14.4925 C   0  0  0  0  0  0  0  0  0  0  0  0
  -21.9330    3.5801  -14.0462 F   0  0  0  0  0  0  0  0  0  0  0  0
  -27.2410   -1.9792  -10.4995 C   0  0  0  0  0  0  0  0  0  0  0  0
  -27.9012   -1.0779  -11.0152 O   0  0  0  0  0  0  0  0  0  0  0  0
  -25.9559   -2.3398  -10.8792 N   0  0  0  0  0  0  0  0  0  0  0  0
  -25.7182   -3.3143  -10.7366 H   0  0  0  0  0  0  0  0  0  0  0  0
  -27.8090   -2.8052   -9.3644 C   0  0  0  0  0  0  0  0  0  0  0  0
  -28.4182    0.0418   -4.3117 C   0  0  0  0  0  0  0  0  0  0  0  0
  -28.2221   -0.6967   -5.6031 C   0  0  0  0  0  0  0  0  0  0  0  0
  -27.8812   -0.0142   -6.7734 C   0  0  0  0  0  0  0  0  0  0  0  0
  -27.7195   -0.7035   -7.9756 C   0  0  0  0  0  0  0  0  0  0  0  0
  -27.8884   -2.0958   -8.0342 C   0  0  0  0  0  0  0  0  0  0  0  0
  -28.2246   -2.7802   -6.8584 C   0  0  0  0  0  0  0  0  0  0  0  0
  -28.3878   -2.0861   -5.6536 C   0  0  0  0  0  0  0  0  0  0  0  0
 22 23  1  0  0  0
 23 24  1  0  0  0
 23 28  2  0  0  0
 24 25  2  0  0  0
 25 26  1  0  0  0
 26 21  1  0  0  0
 26 27  2  0  0  0
 21 17  1  0  0  0
 17 18  2  0  0  0
 17 19  1  0  0  0
 19  1  1  0  0  0
 19 20  1  0  0  0
  1  2  1  0  0  0
  1  9  2  0  0  0
  2  3  2  0  0  0
  3  4  1  0  0  0
  4  5  1  0  0  0
  4  8  2  0  0  0
  5  6  1  0  0  0
  6 10  1  0  0  0
  6  7  2  0  0  0
 10 11  1  0  0  0
 10 15  2  0  0  0
 11 12  2  0  0  0
 12 13  1  0  0  0
 13 14  2  0  0  0
 14 15  1  0  0  0
 15 16  1  0  0  0
  7  8  1  0  0  0
  8  9  1  0  0  0
 27 28  1  0  0  0
M  END
> <minimizedAffinity>
-10.64647

$$$$
