CHEMBL1965910


 37 42  0  0  0  0  0  0  0  0999 V2000
  -28.9007  -10.2355   -5.0875 N   0  0  0  0  0  0  0  0  0  0  0  0
  -29.0228   -8.8818   -4.8013 C   0  0  0  0  0  0  0  0  0  0  0  0
  -29.2710   -8.5724   -3.5129 N   0  0  0  0  0  0  0  0  0  0  0  0
  -29.3870   -7.2755   -3.1756 C   0  0  0  0  0  0  0  0  0  0  0  0
  -29.2594   -6.2009   -3.9648 N   0  0  0  0  0  0  0  0  0  0  0  0
  -29.0198   -6.5476   -5.2403 C   0  0  0  0  0  0  0  0  0  0  0  0
  -28.9056   -7.8425   -5.7447 C   0  0  0  0  0  0  0  0  0  0  0  0
  -28.6930   -7.7150   -7.1592 C   0  0  0  0  0  0  0  0  0  0  0  0
  -28.6521   -6.3587   -7.4369 C   0  0  0  0  0  0  0  0  0  0  0  0
  -28.8455   -5.6634   -6.2735 N   0  0  0  0  0  0  0  0  0  0  0  0
  -28.8032  -10.7754   -4.2349 H   0  0  0  0  0  0  0  0  0  0  0  0
  -28.2408  -10.4502   -5.8244 H   0  0  0  0  0  0  0  0  0  0  0  0
  -28.5232   -8.7043   -8.2170 C   0  0  0  0  0  0  0  0  0  0  0  0
  -29.5390   -9.0016   -9.1283 C   0  0  0  0  0  0  0  0  0  0  0  0
  -29.3527   -9.9859  -10.1025 C   0  0  0  0  0  0  0  0  0  0  0  0
  -28.1313  -10.6511  -10.1999 C   0  0  0  0  0  0  0  0  0  0  0  0
  -27.0996  -10.3477   -9.3161 C   0  0  0  0  0  0  0  0  0  0  0  0
  -27.2986   -9.3743   -8.3384 C   0  0  0  0  0  0  0  0  0  0  0  0
  -25.9389  -11.0506   -9.4837 O   0  0  0  0  0  0  0  0  0  0  0  0
  -25.7006  -12.0652   -8.5086 C   0  0  0  0  0  0  0  0  0  0  0  0
  -24.2914  -11.9240   -8.0118 C   0  0  0  0  0  0  0  0  0  0  0  0
  -24.0163  -11.2427   -6.8208 C   0  0  0  0  0  0  0  0  0  0  0  0
  -22.7005  -11.1257   -6.3758 C   0  0  0  0  0  0  0  0  0  0  0  0
  -21.6535  -11.6803   -7.1199 C   0  0  0  0  0  0  0  0  0  0  0  0
  -21.9230  -12.3484   -8.3088 C   0  0  0  0  0  0  0  0  0  0  0  0
  -23.2355  -12.4657   -8.7581 C   0  0  0  0  0  0  0  0  0  0  0  0
  -28.9074   -4.2091   -6.1732 C   0  0  0  0  0  0  0  0  0  0  0  0
  -28.3488   -3.5388   -7.4362 C   0  0  0  0  0  0  0  0  0  0  0  0
  -28.4686   -2.0222   -7.3472 C   0  0  0  0  0  0  0  0  0  0  0  0
  -27.7392   -1.4726   -6.1092 C   0  0  0  0  0  0  0  0  0  0  0  0
  -28.2702   -2.1514   -4.8261 C   0  0  0  0  0  0  0  0  0  0  0  0
  -28.2015   -3.6805   -4.9144 C   0  0  0  0  0  0  0  0  0  0  0  0
  -27.7300   -0.0051   -5.9749 N   0  0  0  0  0  0  0  0  0  0  0  0
  -28.3448    0.5560   -4.7690 C   0  0  0  0  0  0  0  0  0  0  0  0
  -29.7759    0.8911   -5.1421 C   0  0  0  0  0  0  0  0  0  0  0  0
  -29.7108    1.2226   -6.6210 C   0  0  0  0  0  0  0  0  0  0  0  0
  -28.3681    0.6866   -7.1064 C   0  0  0  0  0  0  0  0  0  0  0  0
  1  2  1  0  0  0
  1 11  1  0  0  0
  1 12  1  0  0  0
  2  3  1  0  0  0
  2  7  2  0  0  0
  3  4  2  0  0  0
  4  5  1  0  0  0
  5  6  2  0  0  0
  6  7  1  0  0  0
  6 10  1  0  0  0
  7  8  1  0  0  0
  8 13  1  0  0  0
  8  9  2  0  0  0
 13 14  1  0  0  0
 13 18  2  0  0  0
 14 15  2  0  0  0
 15 16  1  0  0  0
 16 17  2  0  0  0
 17 19  1  0  0  0
 17 18  1  0  0  0
 19 20  1  0  0  0
 20 21  1  0  0  0
 21 22  1  0  0  0
 21 26  2  0  0  0
 22 23  2  0  0  0
 23 24  1  0  0  0
 24 25  2  0  0  0
 25 26  1  0  0  0
  9 10  1  0  0  0
 10 27  1  0  0  0
 27 28  1  0  0  0
 27 32  1  0  0  0
 28 29  1  0  0  0
 29 30  1  0  0  0
 30 33  1  0  0  0
 30 31  1  0  0  0
 33 34  1  0  0  0
 33 37  1  0  0  0
 34 35  1  0  0  0
 35 36  1  0  0  0
 36 37  1  0  0  0
 31 32  1  0  0  0
M  END
> <minimizedAffinity>
-9.58548

$$$$
