CHEMBL188042


 38 40  0  0  0  0  0  0  0  0999 V2000
  -24.3006   -0.5281  -14.1635 N   0  0  0  0  0  0  0  0  0  0  0  0
  -24.7240   -0.8669  -15.5285 C   0  0  0  0  0  0  0  0  0  0  0  0
  -26.4979   -2.1393  -10.8902 C   0  0  0  0  0  0  0  0  0  0  0  0
  -27.0945   -1.9582  -12.1377 C   0  0  0  0  0  0  0  0  0  0  0  0
  -26.3784   -1.4174  -13.2109 C   0  0  0  0  0  0  0  0  0  0  0  0
  -25.0529   -0.9979  -13.0702 C   0  0  0  0  0  0  0  0  0  0  0  0
  -24.4983   -1.1023  -11.7800 C   0  0  0  0  0  0  0  0  0  0  0  0
  -25.2046   -1.6671  -10.7025 C   0  0  0  0  0  0  0  0  0  0  0  0
  -28.1259   -3.0336   -7.7530 N   0  0  0  0  0  0  0  0  0  0  0  0
  -27.4996   -2.1787   -8.6363 C   0  0  0  0  0  0  0  0  0  0  0  0
  -27.3320   -0.9958   -8.3623 O   0  0  0  0  0  0  0  0  0  0  0  0
  -27.1576   -2.7926   -9.8217 N   0  0  0  0  0  0  0  0  0  0  0  0
  -27.7690   -3.9800   -7.7174 H   0  0  0  0  0  0  0  0  0  0  0  0
  -27.6634   -3.6404  -10.0329 H   0  0  0  0  0  0  0  0  0  0  0  0
  -28.5017   -2.4615   -6.4704 C   0  0  0  0  0  0  0  0  0  0  0  0
  -29.5338   -3.2876   -5.6948 C   0  0  0  0  0  0  0  0  0  0  0  0
  -27.9322   -4.2906   -4.1532 C   0  0  0  0  0  0  0  0  0  0  0  0
  -29.0091   -4.5454   -5.1173 N   0  0  0  0  0  0  0  0  0  0  0  0
  -30.1044   -5.2477   -4.4351 C   0  0  0  0  0  0  0  0  0  0  0  0
  -23.2154    0.3830  -14.1423 C   0  0  0  0  0  0  0  0  0  0  0  0
  -23.3915    1.6800  -13.7024 C   0  0  0  0  0  0  0  0  0  0  0  0
  -22.3032    2.5147  -13.7729 C   0  0  0  0  0  0  0  0  0  0  0  0
  -21.1029    2.1339  -14.2397 N   0  0  0  0  0  0  0  0  0  0  0  0
  -20.9991    0.8584  -14.6305 C   0  0  0  0  0  0  0  0  0  0  0  0
  -22.0055   -0.0265  -14.5597 N   0  0  0  0  0  0  0  0  0  0  0  0
  -19.7634    0.4595  -15.1496 N   0  0  0  0  0  0  0  0  0  0  0  0
  -19.5839   -0.4853  -14.8366 H   0  0  0  0  0  0  0  0  0  0  0  0
  -18.6121    1.2554  -15.2909 C   0  0  0  0  0  0  0  0  0  0  0  0
  -18.6760    2.6169  -15.6072 C   0  0  0  0  0  0  0  0  0  0  0  0
  -17.5161    3.3644  -15.7949 C   0  0  0  0  0  0  0  0  0  0  0  0
  -16.2690    2.7591  -15.6656 C   0  0  0  0  0  0  0  0  0  0  0  0
  -16.1652    1.4086  -15.3062 C   0  0  0  0  0  0  0  0  0  0  0  0
  -17.3492    0.6710  -15.1134 C   0  0  0  0  0  0  0  0  0  0  0  0
  -14.8284    0.7150  -15.2492 C   0  0  0  0  0  0  0  0  0  0  0  0
  -13.9968    0.9243  -13.6782 S   0  0  0  0  0  0  0  0  0  0  0  0
  -12.7049   -0.2958  -13.6765 C   0  0  0  0  0  0  0  0  0  0  0  0
  -13.3441    2.2223  -13.7171 O   0  0  0  0  0  0  0  0  0  0  0  0
  -14.9078    0.6154  -12.5913 O   0  0  0  0  0  0  0  0  0  0  0  0
 17 18  1  0  0  0
 18 19  1  0  0  0
 18 16  1  0  0  0
 16 15  1  0  0  0
 15  9  1  0  0  0
  9 10  1  0  0  0
  9 13  1  0  0  0
 10 11  2  0  0  0
 10 12  1  0  0  0
 12  3  1  0  0  0
 12 14  1  0  0  0
  3  4  1  0  0  0
  3  8  2  0  0  0
  4  5  2  0  0  0
  5  6  1  0  0  0
  6  1  1  0  0  0
  6  7  2  0  0  0
  1  2  1  0  0  0
  1 20  1  0  0  0
 20 21  1  0  0  0
 20 25  2  0  0  0
 21 22  2  0  0  0
 22 23  1  0  0  0
 23 24  2  0  0  0
 24 26  1  0  0  0
 24 25  1  0  0  0
 26 28  1  0  0  0
 26 27  1  0  0  0
 28 29  1  0  0  0
 28 33  2  0  0  0
 29 30  2  0  0  0
 30 31  1  0  0  0
 31 32  2  0  0  0
 32 34  1  0  0  0
 32 33  1  0  0  0
 34 35  1  0  0  0
 35 36  1  0  0  0
 35 37  2  0  0  0
 35 38  2  0  0  0
  7  8  1  0  0  0
M  END
> <minimizedAffinity>
-9.25765

$$$$
