CHEMBL3899567


 35 39  0  0  0  0  0  0  0  0999 V2000
  -18.7224    0.5139  -15.1693 C   0  0  0  0  0  0  0  0  0  0  0  0
  -18.9443   -0.5690  -15.7161 O   0  0  0  0  0  0  0  0  0  0  0  0
  -17.3056    0.9087  -14.8901 C   0  0  0  0  0  0  0  0  0  0  0  0
  -16.5141    0.3318  -13.8773 C   0  0  0  0  0  0  0  0  0  0  0  0
  -15.1785    0.7409  -13.6534 C   0  0  0  0  0  0  0  0  0  0  0  0
  -14.5959    1.6142  -14.5880 C   0  0  0  0  0  0  0  0  0  0  0  0
  -13.3227    2.2174  -14.8854 C   0  0  0  0  0  0  0  0  0  0  0  0
  -13.1311    1.9613  -16.2033 N   0  0  0  0  0  0  0  0  0  0  0  0
  -14.3888    2.1589  -16.6734 N   0  0  0  0  0  0  0  0  0  0  0  0
  -15.3418    1.9145  -15.7183 C   0  0  0  0  0  0  0  0  0  0  0  0
  -16.7210    1.7759  -15.8186 C   0  0  0  0  0  0  0  0  0  0  0  0
  -14.5283    2.2926  -17.6586 H   0  0  0  0  0  0  0  0  0  0  0  0
  -12.8818    3.6085  -14.6291 C   0  0  0  0  0  0  0  0  0  0  0  0
  -13.6110    4.5469  -15.1377 N   0  0  0  0  0  0  0  0  0  0  0  0
  -12.9407    5.6066  -15.6822 N   0  0  0  0  0  0  0  0  0  0  0  0
  -12.0925    6.5376  -15.1271 C   0  0  0  0  0  0  0  0  0  0  0  0
  -11.4486    7.1951  -16.0667 N   0  0  0  0  0  0  0  0  0  0  0  0
  -11.8552    6.6908  -17.2758 N   0  0  0  0  0  0  0  0  0  0  0  0
  -12.7397    5.7516  -17.0319 C   0  0  0  0  0  0  0  0  0  0  0  0
  -22.2069    1.4417  -14.0493 C   0  0  0  0  0  0  0  0  0  0  0  0
  -22.0900    2.8313  -13.9695 C   0  0  0  0  0  0  0  0  0  0  0  0
  -20.9141    3.4820  -14.3456 C   0  0  0  0  0  0  0  0  0  0  0  0
  -19.8241    2.7438  -14.7850 C   0  0  0  0  0  0  0  0  0  0  0  0
  -19.8854    1.3478  -14.7778 C   0  0  0  0  0  0  0  0  0  0  0  0
  -21.0870    0.6979  -14.4317 C   0  0  0  0  0  0  0  0  0  0  0  0
  -22.6875   -0.5993  -11.9930 O   0  0  0  0  0  0  0  0  0  0  0  0
  -23.5461   -0.2316  -12.7874 C   0  0  0  0  0  0  0  0  0  0  0  0
  -23.4061    0.7557  -13.7506 N   0  0  0  0  0  0  0  0  0  0  0  0
  -24.2532    1.1148  -14.1732 H   0  0  0  0  0  0  0  0  0  0  0  0
  -24.8884   -0.8601  -12.6852 C   0  0  0  0  0  0  0  0  0  0  0  0
  -25.4776   -1.3496  -13.8595 C   0  0  0  0  0  0  0  0  0  0  0  0
  -26.7605   -1.8940  -13.8282 C   0  0  0  0  0  0  0  0  0  0  0  0
  -27.4629   -1.9426  -12.6254 C   0  0  0  0  0  0  0  0  0  0  0  0
  -26.8850   -1.4474  -11.4545 C   0  0  0  0  0  0  0  0  0  0  0  0
  -25.5981   -0.9035  -11.4800 C   0  0  0  0  0  0  0  0  0  0  0  0
 26 27  2  0  0  0
 27 28  1  0  0  0
 27 30  1  0  0  0
 28 20  1  0  0  0
 28 29  1  0  0  0
 20 21  1  0  0  0
 20 25  2  0  0  0
 21 22  2  0  0  0
 22 23  1  0  0  0
 23 24  2  0  0  0
 24  1  1  0  0  0
 24 25  1  0  0  0
  1  2  2  0  0  0
  1  3  1  0  0  0
  3  4  1  0  0  0
  3 11  2  0  0  0
  4  5  2  0  0  0
  5  6  1  0  0  0
  6  7  1  0  0  0
  6 10  2  0  0  0
  7 13  1  0  0  0
  7  8  2  0  0  0
 13 14  2  0  0  0
 14 15  1  0  0  0
 15 16  1  0  0  0
 15 19  1  0  0  0
 16 17  2  0  0  0
 17 18  1  0  0  0
 18 19  2  0  0  0
  8  9  1  0  0  0
  9 10  1  0  0  0
  9 12  1  0  0  0
 10 11  1  0  0  0
 30 31  1  0  0  0
 30 35  2  0  0  0
 31 32  2  0  0  0
 32 33  1  0  0  0
 33 34  2  0  0  0
 34 35  1  0  0  0
M  END
> <minimizedAffinity>
-10.03009

$$$$
