CHEMBL150291


 36 41  0  0  0  0  0  0  0  0999 V2000
  -29.0836   -7.7296   -7.7927 C   0  0  0  0  0  0  0  0  0  0  0  0
  -28.1161   -7.0662   -8.5462 C   0  0  0  0  0  0  0  0  0  0  0  0
  -27.9890   -5.6957   -8.4478 C   0  0  0  0  0  0  0  0  0  0  0  0
  -28.8743   -4.9978   -7.6248 C   0  0  0  0  0  0  0  0  0  0  0  0
  -29.7408   -5.6912   -6.7602 C   0  0  0  0  0  0  0  0  0  0  0  0
  -29.8183   -7.0764   -6.7967 C   0  0  0  0  0  0  0  0  0  0  0  0
  -30.3172   -4.6873   -6.0221 C   0  0  0  0  0  0  0  0  0  0  0  0
  -30.5492   -4.7828   -4.6163 C   0  0  0  0  0  0  0  0  0  0  0  0
  -30.2662   -3.5758   -3.8399 C   0  0  0  0  0  0  0  0  0  0  0  0
  -29.8046   -2.4351   -4.5157 C   0  0  0  0  0  0  0  0  0  0  0  0
  -30.4786   -2.4081   -5.7368 C   0  0  0  0  0  0  0  0  0  0  0  0
  -30.1306   -3.4488   -6.5497 C   0  0  0  0  0  0  0  0  0  0  0  0
  -28.9935   -3.6321   -7.3413 N   0  0  0  0  0  0  0  0  0  0  0  0
  -31.0980   -1.0910   -5.9307 C   0  0  0  0  0  0  0  0  0  0  0  0
  -29.9143   -0.2918   -5.4704 C   0  0  0  0  0  0  0  0  0  0  0  0
  -29.3626    0.6381   -6.3579 C   0  0  0  0  0  0  0  0  0  0  0  0
  -27.9889    0.7760   -6.3677 C   0  0  0  0  0  0  0  0  0  0  0  0
  -27.2168    0.0548   -5.4397 C   0  0  0  0  0  0  0  0  0  0  0  0
  -27.8010   -0.8534   -4.5008 C   0  0  0  0  0  0  0  0  0  0  0  0
  -29.1891   -1.0885   -4.5071 C   0  0  0  0  0  0  0  0  0  0  0  0
  -31.0487   -3.7134   -2.6304 C   0  0  0  0  0  0  0  0  0  0  0  0
  -31.3292   -2.9382   -1.7242 O   0  0  0  0  0  0  0  0  0  0  0  0
  -31.6933   -4.9634   -2.7512 N   0  0  0  0  0  0  0  0  0  0  0  0
  -31.4057   -5.7414   -3.9419 C   0  0  0  0  0  0  0  0  0  0  0  0
  -32.5476   -5.1073   -2.2306 H   0  0  0  0  0  0  0  0  0  0  0  0
  -29.5193   -9.1163   -8.2413 C   0  0  0  0  0  0  0  0  0  0  0  0
  -28.5670   -9.5018   -9.3835 C   0  0  0  0  0  0  0  0  0  0  0  0
  -30.8871   -9.0514   -8.6502 O   0  0  0  0  0  0  0  0  0  0  0  0
  -31.0766  -10.6902   -6.8534 C   0  0  0  0  0  0  0  0  0  0  0  0
  -31.7863   -9.9074   -7.9510 C   0  0  0  0  0  0  0  0  0  0  0  0
  -32.8660   -9.0064   -7.3614 C   0  0  0  0  0  0  0  0  0  0  0  0
  -27.8698   -2.6944   -7.3632 C   0  0  0  0  0  0  0  0  0  0  0  0
  -27.6986   -1.6794   -8.4856 C   0  0  0  0  0  0  0  0  0  0  0  0
  -27.1971   -2.3280   -9.7603 C   0  0  0  0  0  0  0  0  0  0  0  0
  -25.8979   -1.8401  -10.0633 O   0  0  0  0  0  0  0  0  0  0  0  0
  -25.9774   -0.8944  -10.2751 H   0  0  0  0  0  0  0  0  0  0  0  0
 29 30  1  0  0  0
 30 31  1  0  0  0
 30 28  1  0  0  0
 28 26  1  0  0  0
 26 27  1  0  0  0
 26  1  1  0  0  0
  1  2  1  0  0  0
  1  6  2  0  0  0
  2  3  2  0  0  0
  3  4  1  0  0  0
  4  5  2  0  0  0
  4 13  1  0  0  0
  5  6  1  0  0  0
  5  7  1  0  0  0
  7  8  1  0  0  0
  7 12  2  0  0  0
  8  9  2  0  0  0
  8 24  1  0  0  0
  9 10  1  0  0  0
  9 21  1  0  0  0
 10 11  2  0  0  0
 10 20  1  0  0  0
 11 12  1  0  0  0
 11 14  1  0  0  0
 12 13  1  0  0  0
 13 32  1  0  0  0
 32 33  1  0  0  0
 33 34  1  0  0  0
 34 35  1  0  0  0
 35 36  1  0  0  0
 14 15  1  0  0  0
 15 16  1  0  0  0
 15 20  2  0  0  0
 16 17  2  0  0  0
 17 18  1  0  0  0
 18 19  2  0  0  0
 19 20  1  0  0  0
 21 22  2  0  0  0
 21 23  1  0  0  0
 23 24  1  0  0  0
 23 25  1  0  0  0
M  END
> <minimizedAffinity>
-7.92485

$$$$
