CHEMBL3980495


 30 33  0  0  0  0  0  0  0  0999 V2000
  -25.3711   -1.9235  -12.1305 C   0  0  0  0  0  0  0  0  0  0  0  0
  -24.0925   -1.9287  -11.5519 C   0  0  0  0  0  0  0  0  0  0  0  0
  -23.0116   -1.2675  -12.1429 C   0  0  0  0  0  0  0  0  0  0  0  0
  -23.1674   -0.6272  -13.3661 C   0  0  0  0  0  0  0  0  0  0  0  0
  -24.4093   -0.6991  -14.0090 C   0  0  0  0  0  0  0  0  0  0  0  0
  -25.5059   -1.3499  -13.3987 C   0  0  0  0  0  0  0  0  0  0  0  0
  -27.8692   -2.7516   -9.5508 N   0  0  0  0  0  0  0  0  0  0  0  0
  -26.7762   -2.1076  -10.1211 C   0  0  0  0  0  0  0  0  0  0  0  0
  -26.0901   -1.2885   -9.5169 O   0  0  0  0  0  0  0  0  0  0  0  0
  -26.5157   -2.4462  -11.4437 N   0  0  0  0  0  0  0  0  0  0  0  0
  -28.4178   -3.3729  -10.1230 H   0  0  0  0  0  0  0  0  0  0  0  0
  -27.2974   -2.7377  -12.0091 H   0  0  0  0  0  0  0  0  0  0  0  0
  -29.5001   -2.1011   -4.0420 C   0  0  0  0  0  0  0  0  0  0  0  0
  -29.0926   -2.2861   -5.4735 C   0  0  0  0  0  0  0  0  0  0  0  0
  -28.3478   -1.2980   -6.1027 C   0  0  0  0  0  0  0  0  0  0  0  0
  -27.9489   -1.4499   -7.4303 C   0  0  0  0  0  0  0  0  0  0  0  0
  -28.2754   -2.5835   -8.1872 C   0  0  0  0  0  0  0  0  0  0  0  0
  -29.0239   -3.5812   -7.5509 C   0  0  0  0  0  0  0  0  0  0  0  0
  -29.4308   -3.4310   -6.2067 C   0  0  0  0  0  0  0  0  0  0  0  0
  -22.0521    0.0848  -13.9254 C   0  0  0  0  0  0  0  0  0  0  0  0
  -21.1461    0.7277  -14.3978 C   0  0  0  0  0  0  0  0  0  0  0  0
  -20.0211    1.5009  -14.8697 C   0  0  0  0  0  0  0  0  0  0  0  0
  -20.1819    2.9456  -15.1610 C   0  0  0  0  0  0  0  0  0  0  0  0
  -19.1007    3.6076  -15.5871 C   0  0  0  0  0  0  0  0  0  0  0  0
  -17.8848    2.9069  -15.7384 C   0  0  0  0  0  0  0  0  0  0  0  0
  -16.6959    3.3240  -16.1309 N   0  0  0  0  0  0  0  0  0  0  0  0
  -15.8990    2.2085  -16.0898 C   0  0  0  0  0  0  0  0  0  0  0  0
  -16.6119    1.1074  -15.6715 C   0  0  0  0  0  0  0  0  0  0  0  0
  -17.8839    1.5539  -15.4387 N   0  0  0  0  0  0  0  0  0  0  0  0
  -18.9393    0.7969  -14.9935 N   0  0  0  0  0  0  0  0  0  0  0  0
 13 14  1  0  0  0
 14 15  1  0  0  0
 14 19  2  0  0  0
 15 16  2  0  0  0
 16 17  1  0  0  0
 17  7  1  0  0  0
 17 18  2  0  0  0
  7  8  1  0  0  0
  7 11  1  0  0  0
  8  9  2  0  0  0
  8 10  1  0  0  0
 10  1  1  0  0  0
 10 12  1  0  0  0
  1  2  1  0  0  0
  1  6  2  0  0  0
  2  3  2  0  0  0
  3  4  1  0  0  0
  4 20  1  0  0  0
  4  5  2  0  0  0
 20 21  3  0  0  0
 21 22  1  0  0  0
 22 23  1  0  0  0
 22 30  2  0  0  0
 23 24  2  0  0  0
 24 25  1  0  0  0
 25 26  2  0  0  0
 25 29  1  0  0  0
 26 27  1  0  0  0
 27 28  2  0  0  0
 28 29  1  0  0  0
 29 30  1  0  0  0
  5  6  1  0  0  0
 18 19  1  0  0  0
M  END
> <minimizedAffinity>
-12.09307

$$$$
