CHEMBL201264


 28 31  0  0  0  0  0  0  0  0999 V2000
  -29.4183   -6.3720   -5.2623 C   0  0  0  0  0  0  0  0  0  0  0  0
  -29.1114   -5.0545   -5.2675 C   0  0  0  0  0  0  0  0  0  0  0  0
  -28.9101   -4.6414   -3.8636 C   0  0  0  0  0  0  0  0  0  0  0  0
  -28.6657   -3.5309   -3.4437 O   0  0  0  0  0  0  0  0  0  0  0  0
  -29.0483   -5.7361   -3.1089 N   0  0  0  0  0  0  0  0  0  0  0  0
  -29.3002   -6.8306   -3.8555 C   0  0  0  0  0  0  0  0  0  0  0  0
  -29.3735   -7.9795   -3.4731 O   0  0  0  0  0  0  0  0  0  0  0  0
  -28.8832   -5.7790   -2.1089 H   0  0  0  0  0  0  0  0  0  0  0  0
  -28.8630   -4.2026   -6.3810 C   0  0  0  0  0  0  0  0  0  0  0  0
  -28.2148   -4.5693   -7.5462 C   0  0  0  0  0  0  0  0  0  0  0  0
  -28.1151   -3.4377   -8.3142 N   0  0  0  0  0  0  0  0  0  0  0  0
  -28.2858   -2.3400   -7.5038 C   0  0  0  0  0  0  0  0  0  0  0  0
  -27.8531   -1.0165   -7.6355 C   0  0  0  0  0  0  0  0  0  0  0  0
  -28.3051   -0.1027   -6.6793 C   0  0  0  0  0  0  0  0  0  0  0  0
  -29.2460   -0.4763   -5.7227 C   0  0  0  0  0  0  0  0  0  0  0  0
  -29.6310   -1.8152   -5.5843 C   0  0  0  0  0  0  0  0  0  0  0  0
  -29.0405   -2.7831   -6.4205 C   0  0  0  0  0  0  0  0  0  0  0  0
  -27.8546   -3.4043   -9.2909 H   0  0  0  0  0  0  0  0  0  0  0  0
  -30.1149   -9.2313   -8.3933 C   0  0  0  0  0  0  0  0  0  0  0  0
  -28.8195   -8.7836   -8.0914 C   0  0  0  0  0  0  0  0  0  0  0  0
  -28.5905   -7.8303   -7.0941 C   0  0  0  0  0  0  0  0  0  0  0  0
  -29.6546   -7.2953   -6.3698 C   0  0  0  0  0  0  0  0  0  0  0  0
  -30.9572   -7.7082   -6.6900 C   0  0  0  0  0  0  0  0  0  0  0  0
  -31.2006   -8.6713   -7.6895 C   0  0  0  0  0  0  0  0  0  0  0  0
  -29.2420  -10.5549  -10.1577 C   0  0  0  0  0  0  0  0  0  0  0  0
  -30.3638  -10.1344   -9.3880 O   0  0  0  0  0  0  0  0  0  0  0  0
  -32.5408   -8.9434   -7.8226 O   0  0  0  0  0  0  0  0  0  0  0  0
  -33.1096   -9.9914   -7.0544 C   0  0  0  0  0  0  0  0  0  0  0  0
 25 26  1  0  0  0
 26 19  1  0  0  0
 19 20  1  0  0  0
 19 24  2  0  0  0
 20 21  2  0  0  0
 21 22  1  0  0  0
 22  1  1  0  0  0
 22 23  2  0  0  0
  1  2  2  0  0  0
  1  6  1  0  0  0
  2  9  1  0  0  0
  2  3  1  0  0  0
  9 10  2  0  0  0
  9 17  1  0  0  0
 10 11  1  0  0  0
 11 12  1  0  0  0
 11 18  1  0  0  0
 12 13  1  0  0  0
 12 17  2  0  0  0
 13 14  2  0  0  0
 14 15  1  0  0  0
 15 16  2  0  0  0
 16 17  1  0  0  0
  3  4  2  0  0  0
  3  5  1  0  0  0
  5  6  1  0  0  0
  5  8  1  0  0  0
  6  7  2  0  0  0
 23 24  1  0  0  0
 24 27  1  0  0  0
 27 28  1  0  0  0
M  END
> <minimizedAffinity>
-8.82490

$$$$
