CHEMBL193094


 22 24  0  0  0  0  0  0  0  0999 V2000
  -29.0932   -5.6421   -7.5022 C   0  0  0  0  0  0  0  0  0  0  0  0
  -28.7988   -5.3904   -6.2162 C   0  0  0  0  0  0  0  0  0  0  0  0
  -28.2672   -6.3739   -5.1971 C   0  0  0  0  0  0  0  0  0  0  0  0
  -27.9217   -7.5290   -5.3448 O   0  0  0  0  0  0  0  0  0  0  0  0
  -28.2077   -5.6627   -4.0109 N   0  0  0  0  0  0  0  0  0  0  0  0
  -28.6243   -4.3499   -4.1800 C   0  0  0  0  0  0  0  0  0  0  0  0
  -28.6939   -3.3856   -3.1961 C   0  0  0  0  0  0  0  0  0  0  0  0
  -29.1568   -2.1261   -3.5694 C   0  0  0  0  0  0  0  0  0  0  0  0
  -29.5345   -1.8656   -4.9006 C   0  0  0  0  0  0  0  0  0  0  0  0
  -29.4536   -2.8635   -5.8845 C   0  0  0  0  0  0  0  0  0  0  0  0
  -28.9891   -4.1125   -5.5104 C   0  0  0  0  0  0  0  0  0  0  0  0
  -27.8845   -6.0815   -3.1524 H   0  0  0  0  0  0  0  0  0  0  0  0
  -31.2669   -8.0197   -7.2778 C   0  0  0  0  0  0  0  0  0  0  0  0
  -29.9541   -8.0080   -7.9721 C   0  0  0  0  0  0  0  0  0  0  0  0
  -29.3411   -9.1082   -8.6340 C   0  0  0  0  0  0  0  0  0  0  0  0
  -28.0988   -8.7040   -9.0796 C   0  0  0  0  0  0  0  0  0  0  0  0
  -27.9493   -7.3816   -8.7244 N   0  0  0  0  0  0  0  0  0  0  0  0
  -29.0583   -6.9538   -8.0366 C   0  0  0  0  0  0  0  0  0  0  0  0
  -27.1116   -6.8418   -8.9010 H   0  0  0  0  0  0  0  0  0  0  0  0
  -27.0163   -9.4771   -9.7328 C   0  0  0  0  0  0  0  0  0  0  0  0
  -26.6346   -8.7744  -10.9060 O   0  0  0  0  0  0  0  0  0  0  0  0
  -27.3643   -8.8977  -11.5367 H   0  0  0  0  0  0  0  0  0  0  0  0
 13 14  1  0  0  0
 14 15  1  0  0  0
 14 18  2  0  0  0
 15 16  2  0  0  0
 16 20  1  0  0  0
 16 17  1  0  0  0
 20 21  1  0  0  0
 21 22  1  0  0  0
 17 18  1  0  0  0
 17 19  1  0  0  0
 18  1  1  0  0  0
  1  2  2  0  0  0
  2  3  1  0  0  0
  2 11  1  0  0  0
  3  4  2  0  0  0
  3  5  1  0  0  0
  5  6  1  0  0  0
  5 12  1  0  0  0
  6  7  1  0  0  0
  6 11  2  0  0  0
  7  8  2  0  0  0
  8  9  1  0  0  0
  9 10  2  0  0  0
 10 11  1  0  0  0
M  END
> <minimizedAffinity>
-8.03526

$$$$
