CHEMBL3974273


 39 43  0  0  0  0  0  0  0  0999 V2000
  -17.3567    2.1308  -15.5505 N   0  0  0  0  0  0  0  0  0  0  0  0
  -18.7886    1.9520  -15.4936 C   0  0  0  0  0  0  0  0  0  0  0  0
  -19.4962    3.1352  -15.6984 C   0  0  0  0  0  0  0  0  0  0  0  0
  -20.7329    3.3005  -15.1179 C   0  0  0  0  0  0  0  0  0  0  0  0
  -21.3808    2.2601  -14.5015 C   0  0  0  0  0  0  0  0  0  0  0  0
  -22.4672    2.6385  -13.8188 N   0  0  0  0  0  0  0  0  0  0  0  0
  -23.2517    1.6611  -13.3609 C   0  0  0  0  0  0  0  0  0  0  0  0
  -23.0212    0.3352  -13.6677 C   0  0  0  0  0  0  0  0  0  0  0  0
  -21.8328   -0.0603  -14.2476 N   0  0  0  0  0  0  0  0  0  0  0  0
  -20.9216    0.9370  -14.6234 C   0  0  0  0  0  0  0  0  0  0  0  0
  -19.5421    0.8192  -15.0741 C   0  0  0  0  0  0  0  0  0  0  0  0
  -24.1748   -0.5483  -13.5055 C   0  0  0  0  0  0  0  0  0  0  0  0
  -24.9532   -1.2163  -14.4953 C   0  0  0  0  0  0  0  0  0  0  0  0
  -26.1007   -1.7212  -14.0176 N   0  0  0  0  0  0  0  0  0  0  0  0
  -26.0730   -1.3751  -12.7204 N   0  0  0  0  0  0  0  0  0  0  0  0
  -27.0010   -1.9662  -11.7846 C   0  0  0  0  0  0  0  0  0  0  0  0
  -25.0353   -0.5339  -12.4145 C   0  0  0  0  0  0  0  0  0  0  0  0
  -14.0833    0.2677  -15.4500 C   0  0  0  0  0  0  0  0  0  0  0  0
  -14.0759   -0.2432  -14.1650 C   0  0  0  0  0  0  0  0  0  0  0  0
  -15.2159   -0.1092  -13.3645 C   0  0  0  0  0  0  0  0  0  0  0  0
  -16.3065    0.6685  -13.8298 C   0  0  0  0  0  0  0  0  0  0  0  0
  -16.3060    1.2709  -15.0985 C   0  0  0  0  0  0  0  0  0  0  0  0
  -15.2128    0.9334  -15.9289 C   0  0  0  0  0  0  0  0  0  0  0  0
  -13.4122   -0.4617  -17.5600 C   0  0  0  0  0  0  0  0  0  0  0  0
  -13.0326    0.1396  -16.3205 O   0  0  0  0  0  0  0  0  0  0  0  0
  -15.3361   -0.6728  -12.1280 O   0  0  0  0  0  0  0  0  0  0  0  0
  -15.5710   -2.0855  -12.1023 C   0  0  0  0  0  0  0  0  0  0  0  0
  -17.0578    3.6516  -15.5009 C   0  0  0  0  0  0  0  0  0  0  0  0
  -15.9826    3.8418  -16.5582 C   0  0  0  0  0  0  0  0  0  0  0  0
  -15.0603    4.0050  -17.4653 C   0  0  0  0  0  0  0  0  0  0  0  0
  -14.0292    4.1701  -18.4430 C   0  0  0  0  0  0  0  0  0  0  0  0
  -13.4325    3.0591  -19.0175 C   0  0  0  0  0  0  0  0  0  0  0  0
  -12.4759    3.2730  -19.9998 C   0  0  0  0  0  0  0  0  0  0  0  0
  -12.1464    4.5791  -20.3500 C   0  0  0  0  0  0  0  0  0  0  0  0
  -12.7706    5.6338  -19.6876 C   0  0  0  0  0  0  0  0  0  0  0  0
  -12.4552    6.9466  -20.0371 N   0  0  0  0  0  0  0  0  0  0  0  0
  -13.7111    5.4529  -18.7504 N   0  0  0  0  0  0  0  0  0  0  0  0
  -11.4559    7.1094  -20.0479 H   0  0  0  0  0  0  0  0  0  0  0  0
  -12.9389    7.5580  -19.3845 H   0  0  0  0  0  0  0  0  0  0  0  0
 24 25  1  0  0  0
 25 18  1  0  0  0
 18 19  1  0  0  0
 18 23  2  0  0  0
 19 20  2  0  0  0
 20 26  1  0  0  0
 20 21  1  0  0  0
 26 27  1  0  0  0
 21 22  2  0  0  0
 22  1  1  0  0  0
 22 23  1  0  0  0
  1 28  1  0  0  0
  1  2  1  0  0  0
 28 29  1  0  0  0
 29 30  3  0  0  0
 30 31  1  0  0  0
 31 32  1  0  0  0
 31 37  2  0  0  0
 32 33  2  0  0  0
 33 34  1  0  0  0
 34 35  2  0  0  0
 35 36  1  0  0  0
 35 37  1  0  0  0
 36 38  1  0  0  0
 36 39  1  0  0  0
  2  3  1  0  0  0
  2 11  2  0  0  0
  3  4  2  0  0  0
  4  5  1  0  0  0
  5  6  1  0  0  0
  5 10  2  0  0  0
  6  7  2  0  0  0
  7  8  1  0  0  0
  8 12  1  0  0  0
  8  9  2  0  0  0
 12 13  1  0  0  0
 12 17  2  0  0  0
 13 14  2  0  0  0
 14 15  1  0  0  0
 15 16  1  0  0  0
 15 17  1  0  0  0
  9 10  1  0  0  0
 10 11  1  0  0  0
M  END
> <minimizedAffinity>
-9.02447

$$$$
