CHEMBL433321


 26 29  0  0  0  0  0  0  0  0999 V2000
  -15.2263   -0.0827  -13.4425 C   0  0  0  0  0  0  0  0  0  0  0  0
  -16.2971    0.4916  -12.8560 N   0  0  0  0  0  0  0  0  0  0  0  0
  -17.0974    1.3594  -13.5423 N   0  0  0  0  0  0  0  0  0  0  0  0
  -16.8459    1.6459  -14.8391 C   0  0  0  0  0  0  0  0  0  0  0  0
  -15.7437    1.0869  -15.5105 C   0  0  0  0  0  0  0  0  0  0  0  0
  -15.4286    1.3252  -16.8658 C   0  0  0  0  0  0  0  0  0  0  0  0
  -14.3146    0.7215  -17.4266 C   0  0  0  0  0  0  0  0  0  0  0  0
  -13.4954   -0.0994  -16.7494 N   0  0  0  0  0  0  0  0  0  0  0  0
  -13.8145   -0.3403  -15.4568 C   0  0  0  0  0  0  0  0  0  0  0  0
  -14.9069    0.2184  -14.7777 C   0  0  0  0  0  0  0  0  0  0  0  0
  -14.4457   -1.0118  -12.7139 N   0  0  0  0  0  0  0  0  0  0  0  0
  -14.0862   -0.5998  -11.8605 H   0  0  0  0  0  0  0  0  0  0  0  0
  -15.4416   -6.8654  -12.7787 Cl  0  0  0  0  0  0  0  0  0  0  0  0
  -15.1371   -5.1738  -12.7164 C   0  0  0  0  0  0  0  0  0  0  0  0
  -16.0971   -4.3189  -12.1890 C   0  0  0  0  0  0  0  0  0  0  0  0
  -15.8550   -2.9436  -12.1592 C   0  0  0  0  0  0  0  0  0  0  0  0
  -14.6523   -2.4046  -12.6423 C   0  0  0  0  0  0  0  0  0  0  0  0
  -13.7040   -3.2834  -13.1836 C   0  0  0  0  0  0  0  0  0  0  0  0
  -13.9401   -4.6629  -13.2114 C   0  0  0  0  0  0  0  0  0  0  0  0
  -17.8520    2.5680  -15.4873 C   0  0  0  0  0  0  0  0  0  0  0  0
  -19.2854    2.3077  -15.0811 C   0  0  0  0  0  0  0  0  0  0  0  0
  -19.8044    1.0085  -15.0814 C   0  0  0  0  0  0  0  0  0  0  0  0
  -21.1160    0.8110  -14.6797 C   0  0  0  0  0  0  0  0  0  0  0  0
  -21.9348    1.8055  -14.2764 N   0  0  0  0  0  0  0  0  0  0  0  0
  -21.4170    3.0503  -14.2745 C   0  0  0  0  0  0  0  0  0  0  0  0
  -20.1177    3.3496  -14.6612 C   0  0  0  0  0  0  0  0  0  0  0  0
 13 14  1  0  0  0
 14 15  1  0  0  0
 14 19  2  0  0  0
 15 16  2  0  0  0
 16 17  1  0  0  0
 17 11  1  0  0  0
 17 18  2  0  0  0
 11  1  1  0  0  0
 11 12  1  0  0  0
  1  2  1  0  0  0
  1 10  2  0  0  0
  2  3  2  0  0  0
  3  4  1  0  0  0
  4 20  1  0  0  0
  4  5  2  0  0  0
 20 21  1  0  0  0
 21 22  1  0  0  0
 21 26  2  0  0  0
 22 23  2  0  0  0
 23 24  1  0  0  0
 24 25  2  0  0  0
 25 26  1  0  0  0
  5  6  1  0  0  0
  5 10  1  0  0  0
  6  7  2  0  0  0
  7  8  1  0  0  0
  8  9  2  0  0  0
  9 10  1  0  0  0
 18 19  1  0  0  0
M  END
> <minimizedAffinity>
-7.92986

$$$$
