CHEMBL4229213


 31 34  0  0  0  0  0  0  0  0999 V2000
  -30.8407   -5.3833   -5.4103 O   0  0  0  0  0  0  0  0  0  0  0  0
  -29.6879   -5.8233   -5.4722 C   0  0  0  0  0  0  0  0  0  0  0  0
  -28.5518   -5.0351   -5.3219 N   0  0  0  0  0  0  0  0  0  0  0  0
  -29.4321   -7.1701   -5.7019 N   0  0  0  0  0  0  0  0  0  0  0  0
  -30.5423   -8.0631   -6.0214 C   0  0  0  0  0  0  0  0  0  0  0  0
  -30.1475   -8.9599   -7.1900 C   0  0  0  0  0  0  0  0  0  0  0  0
  -28.7806   -9.5707   -6.9916 C   0  0  0  0  0  0  0  0  0  0  0  0
  -28.4697  -10.5958   -7.8088 N   0  0  0  0  0  0  0  0  0  0  0  0
  -27.2495  -11.1229   -7.6509 C   0  0  0  0  0  0  0  0  0  0  0  0
  -26.3415  -10.7365   -6.7472 N   0  0  0  0  0  0  0  0  0  0  0  0
  -26.6661   -9.7037   -5.9456 C   0  0  0  0  0  0  0  0  0  0  0  0
  -27.8901   -9.0574   -6.0513 C   0  0  0  0  0  0  0  0  0  0  0  0
  -28.2533   -7.8749   -5.2032 C   0  0  0  0  0  0  0  0  0  0  0  0
  -27.7078   -5.3585   -5.7772 H   0  0  0  0  0  0  0  0  0  0  0  0
  -28.6964   -3.6775   -5.1324 N   0  0  0  0  0  0  0  0  0  0  0  0
  -28.6192   -2.9162   -6.1809 C   0  0  0  0  0  0  0  0  0  0  0  0
  -28.7927   -1.4789   -6.0589 C   0  0  0  0  0  0  0  0  0  0  0  0
  -29.6089   -0.7669   -5.1992 C   0  0  0  0  0  0  0  0  0  0  0  0
  -29.5070    0.6443   -5.3834 C   0  0  0  0  0  0  0  0  0  0  0  0
  -28.6230    0.9674   -6.3893 C   0  0  0  0  0  0  0  0  0  0  0  0
  -27.9025   -0.4263   -7.0768 S   0  0  0  0  0  0  0  0  0  0  0  0
  -25.7251   -9.2872   -4.9676 N   0  0  0  0  0  0  0  0  0  0  0  0
  -26.2133   -8.9424   -4.1446 H   0  0  0  0  0  0  0  0  0  0  0  0
  -24.5593  -10.0132   -4.6277 C   0  0  0  0  0  0  0  0  0  0  0  0
  -24.3478  -10.4311   -3.3057 C   0  0  0  0  0  0  0  0  0  0  0  0
  -23.1802  -11.1124   -2.9518 C   0  0  0  0  0  0  0  0  0  0  0  0
  -22.2031  -11.3476   -3.9136 C   0  0  0  0  0  0  0  0  0  0  0  0
  -21.0846  -11.9928   -3.5520 F   0  0  0  0  0  0  0  0  0  0  0  0
  -22.3745  -10.9004   -5.2191 C   0  0  0  0  0  0  0  0  0  0  0  0
  -21.1517  -11.1521   -6.4043 Cl  0  0  0  0  0  0  0  0  0  0  0  0
  -23.5419  -10.2272   -5.5726 C   0  0  0  0  0  0  0  0  0  0  0  0
  1  2  2  0  0  0
  2  3  1  0  0  0
  2  4  1  0  0  0
  3 15  1  0  0  0
  3 14  1  0  0  0
 15 16  2  0  0  0
 16 17  1  0  0  0
 17 18  2  0  0  0
 17 21  1  0  0  0
 18 19  1  0  0  0
 19 20  2  0  0  0
 20 21  1  0  0  0
  4  5  1  0  0  0
  4 13  1  0  0  0
  5  6  1  0  0  0
  6  7  1  0  0  0
  7  8  1  0  0  0
  7 12  2  0  0  0
  8  9  2  0  0  0
  9 10  1  0  0  0
 10 11  2  0  0  0
 11 22  1  0  0  0
 11 12  1  0  0  0
 22 24  1  0  0  0
 22 23  1  0  0  0
 24 25  1  0  0  0
 24 31  2  0  0  0
 25 26  2  0  0  0
 26 27  1  0  0  0
 27 28  1  0  0  0
 27 29  2  0  0  0
 29 30  1  0  0  0
 29 31  1  0  0  0
 12 13  1  0  0  0
M  END
> <minimizedAffinity>
-8.60827

$$$$
