CHEMBL270258


 28 31  0  0  0  0  0  0  0  0999 V2000
  -14.6771   -0.9327  -13.4608 C   0  0  0  0  0  0  0  0  0  0  0  0
  -13.4980   -0.5292  -14.1099 C   0  0  0  0  0  0  0  0  0  0  0  0
  -12.4022   -1.3822  -14.1626 C   0  0  0  0  0  0  0  0  0  0  0  0
  -12.4720   -2.6414  -13.5679 C   0  0  0  0  0  0  0  0  0  0  0  0
  -13.6305   -3.0663  -12.8963 C   0  0  0  0  0  0  0  0  0  0  0  0
  -13.6743   -4.3454  -12.3044 C   0  0  0  0  0  0  0  0  0  0  0  0
  -14.8145   -4.7874  -11.6357 C   0  0  0  0  0  0  0  0  0  0  0  0
  -15.8998   -3.9315  -11.4983 C   0  0  0  0  0  0  0  0  0  0  0  0
  -15.8829   -2.6760  -12.1105 C   0  0  0  0  0  0  0  0  0  0  0  0
  -14.7545   -2.2053  -12.8216 C   0  0  0  0  0  0  0  0  0  0  0  0
  -16.1460    0.5417  -12.3734 O   0  0  0  0  0  0  0  0  0  0  0  0
  -15.8219    0.0276  -13.4358 C   0  0  0  0  0  0  0  0  0  0  0  0
  -16.4372    0.2306  -14.6647 N   0  0  0  0  0  0  0  0  0  0  0  0
  -16.1092   -0.3287  -15.4420 H   0  0  0  0  0  0  0  0  0  0  0  0
  -17.5753    1.0295  -14.9158 C   0  0  0  0  0  0  0  0  0  0  0  0
  -17.5309    2.4189  -15.0635 C   0  0  0  0  0  0  0  0  0  0  0  0
  -18.7067    3.1561  -15.2418 C   0  0  0  0  0  0  0  0  0  0  0  0
  -19.9343    2.5049  -15.2804 C   0  0  0  0  0  0  0  0  0  0  0  0
  -21.3818    3.4147  -15.4602 Cl  0  0  0  0  0  0  0  0  0  0  0  0
  -19.9935    1.1183  -15.1686 C   0  0  0  0  0  0  0  0  0  0  0  0
  -18.8159    0.3824  -14.9942 C   0  0  0  0  0  0  0  0  0  0  0  0
  -14.7721   -6.0473  -11.0755 O   0  0  0  0  0  0  0  0  0  0  0  0
  -14.1996   -7.0710  -11.8266 C   0  0  0  0  0  0  0  0  0  0  0  0
  -14.8389   -7.4039  -12.9998 C   0  0  0  0  0  0  0  0  0  0  0  0
  -14.2374   -8.4005  -13.7324 C   0  0  0  0  0  0  0  0  0  0  0  0
  -13.1091   -9.0253  -13.3544 N   0  0  0  0  0  0  0  0  0  0  0  0
  -12.5883   -8.6331  -12.1830 C   0  0  0  0  0  0  0  0  0  0  0  0
  -13.0909   -7.6924  -11.3786 N   0  0  0  0  0  0  0  0  0  0  0  0
 11 12  2  0  0  0
 12 13  1  0  0  0
 12  1  1  0  0  0
 13 15  1  0  0  0
 13 14  1  0  0  0
 15 16  1  0  0  0
 15 21  2  0  0  0
 16 17  2  0  0  0
 17 18  1  0  0  0
 18 19  1  0  0  0
 18 20  2  0  0  0
 20 21  1  0  0  0
  1  2  1  0  0  0
  1 10  2  0  0  0
  2  3  2  0  0  0
  3  4  1  0  0  0
  4  5  2  0  0  0
  5  6  1  0  0  0
  5 10  1  0  0  0
  6  7  2  0  0  0
  7 22  1  0  0  0
  7  8  1  0  0  0
 22 23  1  0  0  0
 23 24  1  0  0  0
 23 28  2  0  0  0
 24 25  2  0  0  0
 25 26  1  0  0  0
 26 27  2  0  0  0
 27 28  1  0  0  0
  8  9  2  0  0  0
  9 10  1  0  0  0
M  END
> <minimizedAffinity>
-8.67031

$$$$
