CHEMBL2031893


 40 44  0  0  0  0  0  0  0  0999 V2000
  -23.2327   -0.7905  -13.2546 C   0  0  0  0  0  0  0  0  0  0  0  0
  -22.6973   -0.8225  -11.9696 C   0  0  0  0  0  0  0  0  0  0  0  0
  -23.4828   -1.2207  -10.8751 C   0  0  0  0  0  0  0  0  0  0  0  0
  -24.8257   -1.5872  -11.0304 C   0  0  0  0  0  0  0  0  0  0  0  0
  -25.3588   -1.5599  -12.3252 C   0  0  0  0  0  0  0  0  0  0  0  0
  -24.5742   -1.1462  -13.4155 C   0  0  0  0  0  0  0  0  0  0  0  0
  -25.1574   -1.0939  -14.6226 F   0  0  0  0  0  0  0  0  0  0  0  0
  -25.6826   -1.9358   -9.9468 N   0  0  0  0  0  0  0  0  0  0  0  0
  -27.0621   -1.8017   -9.9104 C   0  0  0  0  0  0  0  0  0  0  0  0
  -27.7298   -1.2434  -10.7765 O   0  0  0  0  0  0  0  0  0  0  0  0
  -25.2400   -2.3553   -9.1267 H   0  0  0  0  0  0  0  0  0  0  0  0
  -27.7515   -2.4278   -8.7531 C   0  0  0  0  0  0  0  0  0  0  0  0
  -28.3997   -1.8151   -7.7351 C   0  0  0  0  0  0  0  0  0  0  0  0
  -28.5082   -0.3440   -7.4663 C   0  0  0  0  0  0  0  0  0  0  0  0
  -29.0231   -2.7284   -6.8738 N   0  0  0  0  0  0  0  0  0  0  0  0
  -29.3019   -2.4802   -5.4584 C   0  0  0  0  0  0  0  0  0  0  0  0
  -28.5203   -3.9943   -7.2219 N   0  0  0  0  0  0  0  0  0  0  0  0
  -27.8461   -3.8820   -8.4452 C   0  0  0  0  0  0  0  0  0  0  0  0
  -27.4143   -4.7548   -9.1844 O   0  0  0  0  0  0  0  0  0  0  0  0
  -29.0634   -5.1902   -6.7153 C   0  0  0  0  0  0  0  0  0  0  0  0
  -30.1812   -5.7418   -7.3489 C   0  0  0  0  0  0  0  0  0  0  0  0
  -30.7017   -6.9666   -6.9232 C   0  0  0  0  0  0  0  0  0  0  0  0
  -30.1343   -7.6236   -5.8323 C   0  0  0  0  0  0  0  0  0  0  0  0
  -29.0325   -7.0696   -5.1824 C   0  0  0  0  0  0  0  0  0  0  0  0
  -28.4858   -5.8672   -5.6336 C   0  0  0  0  0  0  0  0  0  0  0  0
  -22.3938   -0.3207  -14.2455 O   0  0  0  0  0  0  0  0  0  0  0  0
  -18.1163    2.3253  -14.9990 C   0  0  0  0  0  0  0  0  0  0  0  0
  -19.1895    3.2156  -14.8299 C   0  0  0  0  0  0  0  0  0  0  0  0
  -20.4936    2.7880  -14.6393 C   0  0  0  0  0  0  0  0  0  0  0  0
  -21.4255    3.7255  -14.4065 N   0  0  0  0  0  0  0  0  0  0  0  0
  -22.6901    3.3222  -14.1710 C   0  0  0  0  0  0  0  0  0  0  0  0
  -23.0802    2.0028  -14.1364 C   0  0  0  0  0  0  0  0  0  0  0  0
  -22.1016    1.0296  -14.3261 C   0  0  0  0  0  0  0  0  0  0  0  0
  -20.7691    1.4125  -14.6364 C   0  0  0  0  0  0  0  0  0  0  0  0
  -19.7139    0.5196  -14.9411 C   0  0  0  0  0  0  0  0  0  0  0  0
  -18.3881    0.9581  -15.1156 C   0  0  0  0  0  0  0  0  0  0  0  0
  -16.6293    3.9758  -15.8283 C   0  0  0  0  0  0  0  0  0  0  0  0
  -16.8238    2.7822  -15.0613 O   0  0  0  0  0  0  0  0  0  0  0  0
  -17.5349   -0.0832  -15.3556 O   0  0  0  0  0  0  0  0  0  0  0  0
  -16.5216   -0.4095  -14.4180 C   0  0  0  0  0  0  0  0  0  0  0  0
 37 38  1  0  0  0
 38 27  1  0  0  0
 27 28  1  0  0  0
 27 36  2  0  0  0
 28 29  2  0  0  0
 29 30  1  0  0  0
 29 34  1  0  0  0
 30 31  2  0  0  0
 31 32  1  0  0  0
 32 33  2  0  0  0
 33 26  1  0  0  0
 33 34  1  0  0  0
 26  1  1  0  0  0
  1  2  1  0  0  0
  1  6  2  0  0  0
  2  3  2  0  0  0
  3  4  1  0  0  0
  4  8  1  0  0  0
  4  5  2  0  0  0
  8  9  1  0  0  0
  8 11  1  0  0  0
  9 10  2  0  0  0
  9 12  1  0  0  0
 12 13  2  0  0  0
 12 18  1  0  0  0
 13 14  1  0  0  0
 13 15  1  0  0  0
 15 16  1  0  0  0
 15 17  1  0  0  0
 17 20  1  0  0  0
 17 18  1  0  0  0
 20 21  1  0  0  0
 20 25  2  0  0  0
 21 22  2  0  0  0
 22 23  1  0  0  0
 23 24  2  0  0  0
 24 25  1  0  0  0
 18 19  2  0  0  0
  5  6  1  0  0  0
  6  7  1  0  0  0
 34 35  2  0  0  0
 35 36  1  0  0  0
 36 39  1  0  0  0
 39 40  1  0  0  0
M  END
> <minimizedAffinity>
-8.89312

$$$$
