CHEMBL3982718


 40 44  0  0  0  0  0  0  0  0999 V2000
  -14.5228    2.8778  -15.5217 N   0  0  0  0  0  0  0  0  0  0  0  0
  -14.1865    1.6883  -14.7843 C   0  0  0  0  0  0  0  0  0  0  0  0
  -13.2270    0.8963  -15.4000 C   0  0  0  0  0  0  0  0  0  0  0  0
  -13.2834   -0.4508  -15.1856 C   0  0  0  0  0  0  0  0  0  0  0  0
  -14.0684   -1.0401  -14.2435 C   0  0  0  0  0  0  0  0  0  0  0  0
  -13.9566   -2.2977  -14.5497 N   0  0  0  0  0  0  0  0  0  0  0  0
  -14.2503   -3.1371  -13.5980 C   0  0  0  0  0  0  0  0  0  0  0  0
  -14.8759   -2.8031  -12.4223 C   0  0  0  0  0  0  0  0  0  0  0  0
  -15.2140   -1.4464  -12.2179 N   0  0  0  0  0  0  0  0  0  0  0  0
  -14.7911   -0.4175  -13.2394 C   0  0  0  0  0  0  0  0  0  0  0  0
  -14.8522    1.0849  -13.6333 C   0  0  0  0  0  0  0  0  0  0  0  0
  -15.1867   -4.1041  -11.7000 C   0  0  0  0  0  0  0  0  0  0  0  0
  -14.6637   -4.6792  -10.4838 C   0  0  0  0  0  0  0  0  0  0  0  0
  -14.4330   -6.0094  -10.5480 N   0  0  0  0  0  0  0  0  0  0  0  0
  -14.7280   -6.3307  -11.8159 N   0  0  0  0  0  0  0  0  0  0  0  0
  -14.3536   -7.6070  -12.4038 C   0  0  0  0  0  0  0  0  0  0  0  0
  -15.2526   -5.2660  -12.5008 C   0  0  0  0  0  0  0  0  0  0  0  0
  -12.0115    5.6585  -15.1671 C   0  0  0  0  0  0  0  0  0  0  0  0
  -12.1468    6.2588  -16.4259 C   0  0  0  0  0  0  0  0  0  0  0  0
  -13.0865    5.7745  -17.3262 C   0  0  0  0  0  0  0  0  0  0  0  0
  -13.8946    4.7084  -16.9556 C   0  0  0  0  0  0  0  0  0  0  0  0
  -13.7615    4.0475  -15.7287 C   0  0  0  0  0  0  0  0  0  0  0  0
  -12.8173    4.5513  -14.8218 C   0  0  0  0  0  0  0  0  0  0  0  0
  -11.1345    7.4225  -13.8148 C   0  0  0  0  0  0  0  0  0  0  0  0
  -11.1064    6.0521  -14.2114 O   0  0  0  0  0  0  0  0  0  0  0  0
  -13.3480    6.2560  -18.5765 O   0  0  0  0  0  0  0  0  0  0  0  0
  -14.4037    7.1962  -18.6881 C   0  0  0  0  0  0  0  0  0  0  0  0
  -15.6891    2.6860  -16.5227 C   0  0  0  0  0  0  0  0  0  0  0  0
  -17.0869    2.4429  -16.0505 C   0  0  0  0  0  0  0  0  0  0  0  0
  -18.2196    2.3296  -15.5812 C   0  0  0  0  0  0  0  0  0  0  0  0
  -19.5484    2.2274  -15.0361 C   0  0  0  0  0  0  0  0  0  0  0  0
  -20.1790    3.3959  -14.7669 N   0  0  0  0  0  0  0  0  0  0  0  0
  -21.4387    3.2875  -14.2931 C   0  0  0  0  0  0  0  0  0  0  0  0
  -22.0696    2.0880  -14.0779 C   0  0  0  0  0  0  0  0  0  0  0  0
  -21.3364    0.9670  -14.3911 C   0  0  0  0  0  0  0  0  0  0  0  0
  -20.0740    0.9903  -14.8725 N   0  0  0  0  0  0  0  0  0  0  0  0
  -21.9910   -0.2218  -14.1080 O   0  0  0  0  0  0  0  0  0  0  0  0
  -23.1969   -0.1369  -13.3450 C   0  0  0  0  0  0  0  0  0  0  0  0
  -24.2724   -0.8821  -14.1448 C   0  0  0  0  0  0  0  0  0  0  0  0
  -23.0110   -0.8338  -12.0011 C   0  0  0  0  0  0  0  0  0  0  0  0
 24 25  1  0  0  0
 25 18  1  0  0  0
 18 19  1  0  0  0
 18 23  2  0  0  0
 19 20  2  0  0  0
 20 26  1  0  0  0
 20 21  1  0  0  0
 26 27  1  0  0  0
 21 22  2  0  0  0
 22  1  1  0  0  0
 22 23  1  0  0  0
  1 28  1  0  0  0
  1  2  1  0  0  0
 28 29  1  0  0  0
 29 30  3  0  0  0
 30 31  1  0  0  0
 31 32  1  0  0  0
 31 36  2  0  0  0
 32 33  2  0  0  0
 33 34  1  0  0  0
 34 35  2  0  0  0
 35 37  1  0  0  0
 35 36  1  0  0  0
 37 38  1  0  0  0
 38 39  1  0  0  0
 38 40  1  0  0  0
  2  3  1  0  0  0
  2 11  2  0  0  0
  3  4  2  0  0  0
  4  5  1  0  0  0
  5  6  1  0  0  0
  5 10  2  0  0  0
  6  7  2  0  0  0
  7  8  1  0  0  0
  8 12  1  0  0  0
  8  9  2  0  0  0
 12 13  1  0  0  0
 12 17  2  0  0  0
 13 14  2  0  0  0
 14 15  1  0  0  0
 15 16  1  0  0  0
 15 17  1  0  0  0
  9 10  1  0  0  0
 10 11  1  0  0  0
M  END
> <minimizedAffinity>
-9.04816

$$$$
