CHEMBL234202


 24 26  0  0  0  0  0  0  0  0999 V2000
  -31.3073   11.6856  -12.2075 C   0  0  0  0  0  0  0  0  0  0  0  0
  -31.2345   12.0117  -10.9219 N   0  0  0  0  0  0  0  0  0  0  0  0
  -32.4279   12.6070  -10.6133 C   0  0  0  0  0  0  0  0  0  0  0  0
  -33.2534   12.6317  -11.7077 C   0  0  0  0  0  0  0  0  0  0  0  0
  -32.5275   12.0741  -12.7323 N   0  0  0  0  0  0  0  0  0  0  0  0
  -29.8199    9.8831  -12.5168 O   0  0  0  0  0  0  0  0  0  0  0  0
  -30.2215   10.9848  -12.8874 C   0  0  0  0  0  0  0  0  0  0  0  0
  -29.6751   11.7055  -13.9398 N   0  0  0  0  0  0  0  0  0  0  0  0
  -30.0634   12.6394  -14.0544 H   0  0  0  0  0  0  0  0  0  0  0  0
  -28.5479   11.3410  -14.7099 C   0  0  0  0  0  0  0  0  0  0  0  0
  -28.6295   10.4821  -15.8114 C   0  0  0  0  0  0  0  0  0  0  0  0
  -27.4789   10.0587  -16.4819 C   0  0  0  0  0  0  0  0  0  0  0  0
  -26.2323   10.5029  -16.0604 C   0  0  0  0  0  0  0  0  0  0  0  0
  -24.8133    9.9276  -16.8426 Cl  0  0  0  0  0  0  0  0  0  0  0  0
  -26.1332   11.4031  -15.0008 C   0  0  0  0  0  0  0  0  0  0  0  0
  -27.2907   11.8328  -14.3356 C   0  0  0  0  0  0  0  0  0  0  0  0
  -33.0479   11.8709  -14.0788 C   0  0  0  0  0  0  0  0  0  0  0  0
  -34.5741   11.7240  -14.1242 C   0  0  0  0  0  0  0  0  0  0  0  0
  -35.0313   10.2932  -14.2845 C   0  0  0  0  0  0  0  0  0  0  0  0
  -35.1243    9.7048  -15.5499 C   0  0  0  0  0  0  0  0  0  0  0  0
  -35.5139    8.3759  -15.6418 C   0  0  0  0  0  0  0  0  0  0  0  0
  -35.8198    7.6068  -14.5761 N   0  0  0  0  0  0  0  0  0  0  0  0
  -35.7344    8.1947  -13.3640 C   0  0  0  0  0  0  0  0  0  0  0  0
  -35.3551    9.5152  -13.1694 C   0  0  0  0  0  0  0  0  0  0  0  0
  6  7  2  0  0  0
  7  8  1  0  0  0
  7  1  1  0  0  0
  8 10  1  0  0  0
  8  9  1  0  0  0
 10 11  1  0  0  0
 10 16  2  0  0  0
 11 12  2  0  0  0
 12 13  1  0  0  0
 13 14  1  0  0  0
 13 15  2  0  0  0
 15 16  1  0  0  0
  1  2  2  0  0  0
  1  5  1  0  0  0
  2  3  1  0  0  0
  3  4  2  0  0  0
  4  5  1  0  0  0
  5 17  1  0  0  0
 17 18  1  0  0  0
 18 19  1  0  0  0
 19 20  1  0  0  0
 19 24  2  0  0  0
 20 21  2  0  0  0
 21 22  1  0  0  0
 22 23  2  0  0  0
 23 24  1  0  0  0
M  END
> <minimizedAffinity>
-5.53930

$$$$
