CHEMBL3907327


 31 35  0  0  0  0  0  0  0  0999 V2000
  -18.0027    1.8992  -15.1796 C   0  0  0  0  0  0  0  0  0  0  0  0
  -18.3840    3.2268  -15.4116 C   0  0  0  0  0  0  0  0  0  0  0  0
  -19.6797    3.6678  -15.1358 C   0  0  0  0  0  0  0  0  0  0  0  0
  -20.6452    2.8027  -14.6606 C   0  0  0  0  0  0  0  0  0  0  0  0
  -21.8771    3.2840  -14.4285 N   0  0  0  0  0  0  0  0  0  0  0  0
  -22.7951    2.3892  -14.0011 C   0  0  0  0  0  0  0  0  0  0  0  0
  -22.5080    1.0460  -13.8015 C   0  0  0  0  0  0  0  0  0  0  0  0
  -21.2530    0.5667  -14.0022 N   0  0  0  0  0  0  0  0  0  0  0  0
  -20.3142    1.4446  -14.4369 C   0  0  0  0  0  0  0  0  0  0  0  0
  -19.0020    1.0333  -14.6856 C   0  0  0  0  0  0  0  0  0  0  0  0
  -23.5452    0.1103  -13.4060 C   0  0  0  0  0  0  0  0  0  0  0  0
  -24.1986   -0.9121  -14.1365 C   0  0  0  0  0  0  0  0  0  0  0  0
  -25.0861   -1.5898  -13.4054 N   0  0  0  0  0  0  0  0  0  0  0  0
  -25.0020   -1.0097  -12.1953 N   0  0  0  0  0  0  0  0  0  0  0  0
  -25.8099   -1.5010  -11.1058 C   0  0  0  0  0  0  0  0  0  0  0  0
  -24.1000    0.0135  -12.1448 C   0  0  0  0  0  0  0  0  0  0  0  0
  -16.6707    1.4563  -15.4303 N   0  0  0  0  0  0  0  0  0  0  0  0
  -13.9324    2.2050  -17.9289 C   0  0  0  0  0  0  0  0  0  0  0  0
  -13.6157    3.5160  -17.5961 C   0  0  0  0  0  0  0  0  0  0  0  0
  -14.3256    4.1362  -16.5744 C   0  0  0  0  0  0  0  0  0  0  0  0
  -14.0715    5.4304  -16.2199 O   0  0  0  0  0  0  0  0  0  0  0  0
  -15.3183    3.4599  -15.8651 C   0  0  0  0  0  0  0  0  0  0  0  0
  -15.6777    2.1404  -16.1841 C   0  0  0  0  0  0  0  0  0  0  0  0
  -14.9734    1.5509  -17.2512 C   0  0  0  0  0  0  0  0  0  0  0  0
  -13.4563    5.8170  -16.8631 H   0  0  0  0  0  0  0  0  0  0  0  0
  -13.9540    0.2294  -19.2607 C   0  0  0  0  0  0  0  0  0  0  0  0
  -13.3122    1.4392  -18.8795 O   0  0  0  0  0  0  0  0  0  0  0  0
  -16.3988    0.0493  -15.0534 C   0  0  0  0  0  0  0  0  0  0  0  0
  -15.4700   -0.0976  -13.8693 C   0  0  0  0  0  0  0  0  0  0  0  0
  -15.5545   -1.1165  -12.7500 C   0  0  0  0  0  0  0  0  0  0  0  0
  -16.0319    0.2840  -12.5163 C   0  0  0  0  0  0  0  0  0  0  0  0
 26 27  1  0  0  0
 27 18  1  0  0  0
 18 19  1  0  0  0
 18 24  2  0  0  0
 19 20  2  0  0  0
 20 21  1  0  0  0
 20 22  1  0  0  0
 21 25  1  0  0  0
 22 23  2  0  0  0
 23 17  1  0  0  0
 23 24  1  0  0  0
 17 28  1  0  0  0
 17  1  1  0  0  0
 28 29  1  0  0  0
 29 30  1  0  0  0
 29 31  1  0  0  0
 30 31  1  0  0  0
  1  2  1  0  0  0
  1 10  2  0  0  0
  2  3  2  0  0  0
  3  4  1  0  0  0
  4  5  1  0  0  0
  4  9  2  0  0  0
  5  6  2  0  0  0
  6  7  1  0  0  0
  7 11  1  0  0  0
  7  8  2  0  0  0
 11 12  1  0  0  0
 11 16  2  0  0  0
 12 13  2  0  0  0
 13 14  1  0  0  0
 14 15  1  0  0  0
 14 16  1  0  0  0
  8  9  1  0  0  0
  9 10  1  0  0  0
M  END
> <minimizedAffinity>
-8.52633

$$$$
