CHEMBL2071212


 29 32  0  0  0  0  0  0  0  0999 V2000
  -17.2188    1.3748  -15.1401 C   0  0  0  0  0  0  0  0  0  0  0  0
  -16.4068    2.3569  -15.5578 N   0  0  0  0  0  0  0  0  0  0  0  0
  -15.1254    2.2860  -15.1482 C   0  0  0  0  0  0  0  0  0  0  0  0
  -14.6448    1.3085  -14.3113 C   0  0  0  0  0  0  0  0  0  0  0  0
  -12.9847    1.2910  -13.8615 Cl  0  0  0  0  0  0  0  0  0  0  0  0
  -15.5664    0.3710  -13.8639 C   0  0  0  0  0  0  0  0  0  0  0  0
  -16.8430    0.3947  -14.2944 N   0  0  0  0  0  0  0  0  0  0  0  0
  -18.5140    1.4078  -15.6585 N   0  0  0  0  0  0  0  0  0  0  0  0
  -18.5755    0.7290  -16.4089 H   0  0  0  0  0  0  0  0  0  0  0  0
  -22.9049    1.9586  -13.6716 C   0  0  0  0  0  0  0  0  0  0  0  0
  -21.5913    2.1886  -14.2159 N   0  0  0  0  0  0  0  0  0  0  0  0
  -20.7643    1.2651  -14.7930 C   0  0  0  0  0  0  0  0  0  0  0  0
  -19.6186    1.9502  -15.1088 C   0  0  0  0  0  0  0  0  0  0  0  0
  -19.8473    3.2705  -14.6761 C   0  0  0  0  0  0  0  0  0  0  0  0
  -21.0574    3.4216  -14.1330 N   0  0  0  0  0  0  0  0  0  0  0  0
  -15.1959   -0.5331  -12.8747 N   0  0  0  0  0  0  0  0  0  0  0  0
  -14.2357   -0.3773  -12.5470 H   0  0  0  0  0  0  0  0  0  0  0  0
  -15.6151   -1.9321  -12.8754 C   0  0  0  0  0  0  0  0  0  0  0  0
  -15.7470   -2.4658  -11.4264 C   0  0  0  0  0  0  0  0  0  0  0  0
  -16.3981   -3.8505  -11.3996 C   0  0  0  0  0  0  0  0  0  0  0  0
  -15.2718   -4.7467  -11.9161 C   0  0  0  0  0  0  0  0  0  0  0  0
  -14.1639   -3.7298  -12.1979 C   0  0  0  0  0  0  0  0  0  0  0  0
  -14.3721   -2.8113  -11.1061 O   0  0  0  0  0  0  0  0  0  0  0  0
  -14.5179   -2.8889  -13.4348 C   0  0  0  0  0  0  0  0  0  0  0  0
  -13.3011   -2.2441  -14.0911 C   0  0  0  0  0  0  0  0  0  0  0  0
  -12.1362   -2.2454  -13.3817 N   0  0  0  0  0  0  0  0  0  0  0  0
  -13.2638   -1.8626  -15.2595 O   0  0  0  0  0  0  0  0  0  0  0  0
  -11.3463   -1.7966  -13.8288 H   0  0  0  0  0  0  0  0  0  0  0  0
  -12.0643   -2.4462  -12.3945 H   0  0  0  0  0  0  0  0  0  0  0  0
 10 11  1  0  0  0
 11 12  1  0  0  0
 11 15  1  0  0  0
 12 13  2  0  0  0
 13  8  1  0  0  0
 13 14  1  0  0  0
  8  1  1  0  0  0
  8  9  1  0  0  0
  1  2  1  0  0  0
  1  7  2  0  0  0
  2  3  2  0  0  0
  3  4  1  0  0  0
  4  5  1  0  0  0
  4  6  2  0  0  0
  6 16  1  0  0  0
  6  7  1  0  0  0
 16 18  1  0  0  0
 16 17  1  0  0  0
 18 19  1  0  0  0
 18 24  1  0  0  0
 19 20  1  0  0  0
 19 23  1  0  0  0
 20 21  1  0  0  0
 21 22  1  0  0  0
 22 23  1  0  0  0
 22 24  1  0  0  0
 24 25  1  0  0  0
 25 26  1  0  0  0
 25 27  2  0  0  0
 26 28  1  0  0  0
 26 29  1  0  0  0
 14 15  2  0  0  0
M  END
> <minimizedAffinity>
-6.77974

$$$$
