CHEMBL426443


 19 20  0  0  0  0  0  0  0  0999 V2000
  -22.0498    1.1752  -14.1196 N   0  0  0  0  0  0  0  0  0  0  0  0
  -20.9111    0.4689  -14.3998 C   0  0  0  0  0  0  0  0  0  0  0  0
  -20.0029    1.4224  -14.7738 C   0  0  0  0  0  0  0  0  0  0  0  0
  -18.6830    1.2425  -15.1740 C   0  0  0  0  0  0  0  0  0  0  0  0
  -18.0182    0.0500  -15.2785 N   0  0  0  0  0  0  0  0  0  0  0  0
  -18.0551    2.4057  -15.4773 N   0  0  0  0  0  0  0  0  0  0  0  0
  -18.7487    3.5873  -15.3640 C   0  0  0  0  0  0  0  0  0  0  0  0
  -20.0351    3.8311  -14.9838 N   0  0  0  0  0  0  0  0  0  0  0  0
  -20.6649    2.6723  -14.6810 C   0  0  0  0  0  0  0  0  0  0  0  0
  -21.9302    2.5130  -14.2758 N   0  0  0  0  0  0  0  0  0  0  0  0
  -18.4735   -0.8241  -15.0755 H   0  0  0  0  0  0  0  0  0  0  0  0
  -17.0626    0.0774  -15.6013 H   0  0  0  0  0  0  0  0  0  0  0  0
  -23.3189    0.5994  -13.7050 C   0  0  0  0  0  0  0  0  0  0  0  0
  -23.3099    0.2312  -12.2242 C   0  0  0  0  0  0  0  0  0  0  0  0
  -22.9681   -1.2425  -12.0096 C   0  0  0  0  0  0  0  0  0  0  0  0
  -24.2385   -2.0940  -11.9843 C   0  0  0  0  0  0  0  0  0  0  0  0
  -25.3589   -1.4052  -11.2075 C   0  0  0  0  0  0  0  0  0  0  0  0
  -26.4030   -1.6911  -13.4771 C   0  0  0  0  0  0  0  0  0  0  0  0
  -26.6595   -1.3907  -12.0097 C   0  0  0  0  0  0  0  0  0  0  0  0
 18 19  1  0  0  0
 19 17  1  0  0  0
 17 16  1  0  0  0
 16 15  1  0  0  0
 15 14  1  0  0  0
 14 13  1  0  0  0
 13  1  1  0  0  0
  1  2  1  0  0  0
  1 10  1  0  0  0
  2  3  2  0  0  0
  3  4  1  0  0  0
  3  9  1  0  0  0
  4  5  1  0  0  0
  4  6  2  0  0  0
  5 11  1  0  0  0
  5 12  1  0  0  0
  6  7  1  0  0  0
  7  8  2  0  0  0
  8  9  1  0  0  0
  9 10  2  0  0  0
M  END
> <minimizedAffinity>
-6.80971

$$$$
