CHEMBL3589813


 32 35  0  0  0  0  0  0  0  0999 V2000
  -27.9233   -2.0784   -7.6985 C   0  0  0  0  0  0  0  0  0  0  0  0
  -28.4479   -3.3496   -7.8463 C   0  0  0  0  0  0  0  0  0  0  0  0
  -29.5146   -3.7583   -7.0807 C   0  0  0  0  0  0  0  0  0  0  0  0
  -29.9779   -3.0178   -5.9934 C   0  0  0  0  0  0  0  0  0  0  0  0
  -29.4669   -1.7334   -5.8289 C   0  0  0  0  0  0  0  0  0  0  0  0
  -28.4462   -1.2555   -6.6903 C   0  0  0  0  0  0  0  0  0  0  0  0
  -30.9634   -3.5935   -5.1531 N   0  0  0  0  0  0  0  0  0  0  0  0
  -30.4774   -4.3948   -4.2393 C   0  0  0  0  0  0  0  0  0  0  0  0
  -29.2033   -4.1378   -3.3891 C   0  0  0  0  0  0  0  0  0  0  0  0
  -28.8860   -3.0860   -2.8806 O   0  0  0  0  0  0  0  0  0  0  0  0
  -28.4934   -5.3207   -3.4108 N   0  0  0  0  0  0  0  0  0  0  0  0
  -29.1769   -6.2809   -4.1574 C   0  0  0  0  0  0  0  0  0  0  0  0
  -28.5990   -7.3664   -4.7888 C   0  0  0  0  0  0  0  0  0  0  0  0
  -29.3671   -8.0310   -5.7547 C   0  0  0  0  0  0  0  0  0  0  0  0
  -30.6970   -7.6421   -6.0183 C   0  0  0  0  0  0  0  0  0  0  0  0
  -31.5841   -8.4582   -7.2477 Cl  0  0  0  0  0  0  0  0  0  0  0  0
  -31.2700   -6.5418   -5.3799 C   0  0  0  0  0  0  0  0  0  0  0  0
  -30.4769   -5.8600   -4.4741 C   0  0  0  0  0  0  0  0  0  0  0  0
  -27.5355   -5.3761   -3.1051 H   0  0  0  0  0  0  0  0  0  0  0  0
  -28.0107   -1.9326  -10.5634 O   0  0  0  0  0  0  0  0  0  0  0  0
  -26.9908   -1.6529   -9.9447 C   0  0  0  0  0  0  0  0  0  0  0  0
  -26.8946   -1.6274   -8.5577 N   0  0  0  0  0  0  0  0  0  0  0  0
  -25.7948   -1.3533  -10.5645 N   0  0  0  0  0  0  0  0  0  0  0  0
  -26.1530   -1.0815   -8.1475 H   0  0  0  0  0  0  0  0  0  0  0  0
  -24.9652   -1.3856   -9.9904 H   0  0  0  0  0  0  0  0  0  0  0  0
  -25.6061   -1.3115  -11.9712 C   0  0  0  0  0  0  0  0  0  0  0  0
  -26.5770   -1.7282  -12.8900 C   0  0  0  0  0  0  0  0  0  0  0  0
  -26.3316   -1.7085  -14.2646 C   0  0  0  0  0  0  0  0  0  0  0  0
  -25.1111   -1.2453  -14.7387 C   0  0  0  0  0  0  0  0  0  0  0  0
  -24.1559   -0.8021  -13.8300 C   0  0  0  0  0  0  0  0  0  0  0  0
  -22.6382   -0.2204  -14.4164 Cl  0  0  0  0  0  0  0  0  0  0  0  0
  -24.3901   -0.8270  -12.4553 C   0  0  0  0  0  0  0  0  0  0  0  0
 20 21  2  0  0  0
 21 22  1  0  0  0
 21 23  1  0  0  0
 22  1  1  0  0  0
 22 24  1  0  0  0
  1  2  1  0  0  0
  1  6  2  0  0  0
  2  3  2  0  0  0
  3  4  1  0  0  0
  4  7  1  0  0  0
  4  5  2  0  0  0
  7  8  2  0  0  0
  8  9  1  0  0  0
  8 18  1  0  0  0
  9 10  2  0  0  0
  9 11  1  0  0  0
 11 12  1  0  0  0
 11 19  1  0  0  0
 12 13  1  0  0  0
 12 18  2  0  0  0
 13 14  2  0  0  0
 14 15  1  0  0  0
 15 16  1  0  0  0
 15 17  2  0  0  0
 17 18  1  0  0  0
  5  6  1  0  0  0
 23 26  1  0  0  0
 23 25  1  0  0  0
 26 27  1  0  0  0
 26 32  2  0  0  0
 27 28  2  0  0  0
 28 29  1  0  0  0
 29 30  2  0  0  0
 30 31  1  0  0  0
 30 32  1  0  0  0
M  END
> <minimizedAffinity>
-10.64440

$$$$
