CHEMBL204726


 25 28  0  0  0  0  0  0  0  0999 V2000
  -29.7776   -5.9910   -6.7172 C   0  0  0  0  0  0  0  0  0  0  0  0
  -29.2603   -5.6243   -5.5338 C   0  0  0  0  0  0  0  0  0  0  0  0
  -29.1792   -6.3570   -4.2458 C   0  0  0  0  0  0  0  0  0  0  0  0
  -29.3861   -7.5250   -3.9884 O   0  0  0  0  0  0  0  0  0  0  0  0
  -28.7733   -5.3748   -3.3535 N   0  0  0  0  0  0  0  0  0  0  0  0
  -28.4531   -4.1612   -3.9147 N   0  0  0  0  0  0  0  0  0  0  0  0
  -28.6878   -4.2881   -5.2000 C   0  0  0  0  0  0  0  0  0  0  0  0
  -28.5859   -5.5608   -2.3754 H   0  0  0  0  0  0  0  0  0  0  0  0
  -32.9952   -9.7165   -7.1421 C   0  0  0  0  0  0  0  0  0  0  0  0
  -31.8224   -8.8969   -7.3445 N   0  0  0  0  0  0  0  0  0  0  0  0
  -31.6419   -7.6595   -6.7885 C   0  0  0  0  0  0  0  0  0  0  0  0
  -30.3832   -7.2197   -7.1195 C   0  0  0  0  0  0  0  0  0  0  0  0
  -29.8145   -8.1900   -8.0079 C   0  0  0  0  0  0  0  0  0  0  0  0
  -28.5990   -8.2829   -8.7235 C   0  0  0  0  0  0  0  0  0  0  0  0
  -28.3486   -9.4144   -9.5060 C   0  0  0  0  0  0  0  0  0  0  0  0
  -26.8709   -9.5242  -10.3864 Cl  0  0  0  0  0  0  0  0  0  0  0  0
  -29.2700  -10.4531   -9.5853 C   0  0  0  0  0  0  0  0  0  0  0  0
  -30.4803  -10.3849   -8.8899 C   0  0  0  0  0  0  0  0  0  0  0  0
  -30.7328   -9.2409   -8.1154 C   0  0  0  0  0  0  0  0  0  0  0  0
  -28.3786   -3.2471   -6.1863 C   0  0  0  0  0  0  0  0  0  0  0  0
  -28.1045   -1.9506   -5.7772 C   0  0  0  0  0  0  0  0  0  0  0  0
  -27.7936   -0.9643   -6.6575 N   0  0  0  0  0  0  0  0  0  0  0  0
  -27.7421   -1.3396   -7.9565 C   0  0  0  0  0  0  0  0  0  0  0  0
  -27.9877   -2.6389   -8.3632 C   0  0  0  0  0  0  0  0  0  0  0  0
  -28.3124   -3.6187   -7.4912 N   0  0  0  0  0  0  0  0  0  0  0  0
  9 10  1  0  0  0
 10 11  1  0  0  0
 10 19  1  0  0  0
 11 12  2  0  0  0
 12  1  1  0  0  0
 12 13  1  0  0  0
  1  2  2  0  0  0
  2  3  1  0  0  0
  2  7  1  0  0  0
  3  4  2  0  0  0
  3  5  1  0  0  0
  5  6  1  0  0  0
  5  8  1  0  0  0
  6  7  2  0  0  0
  7 20  1  0  0  0
 20 21  1  0  0  0
 20 25  2  0  0  0
 21 22  2  0  0  0
 22 23  1  0  0  0
 23 24  2  0  0  0
 24 25  1  0  0  0
 13 14  1  0  0  0
 13 19  2  0  0  0
 14 15  2  0  0  0
 15 16  1  0  0  0
 15 17  1  0  0  0
 17 18  2  0  0  0
 18 19  1  0  0  0
M  END
> <minimizedAffinity>
-8.53081

$$$$
