CHEMBL4443305


 40 44  0  0  0  0  0  0  0  0999 V2000
  -24.4916  -12.1541   -8.9024 C   0  0  0  0  0  0  0  0  0  0  0  0
  -25.1217  -11.5186   -7.6881 C   0  0  0  0  0  0  0  0  0  0  0  0
  -24.4402  -11.5288   -6.5325 C   0  0  0  0  0  0  0  0  0  0  0  0
  -24.9387  -10.8201   -5.3650 C   0  0  0  0  0  0  0  0  0  0  0  0
  -24.1769  -10.7804   -4.1991 C   0  0  0  0  0  0  0  0  0  0  0  0
  -24.6846  -10.0930   -3.1210 C   0  0  0  0  0  0  0  0  0  0  0  0
  -25.8944   -9.5064   -3.1285 N   0  0  0  0  0  0  0  0  0  0  0  0
  -26.6587   -9.5638   -4.2541 C   0  0  0  0  0  0  0  0  0  0  0  0
  -26.1781  -10.1781   -5.4137 C   0  0  0  0  0  0  0  0  0  0  0  0
  -26.9318  -10.1640   -6.6995 C   0  0  0  0  0  0  0  0  0  0  0  0
  -28.0152   -9.5824   -6.7420 O   0  0  0  0  0  0  0  0  0  0  0  0
  -26.3480  -10.8443   -7.7973 N   0  0  0  0  0  0  0  0  0  0  0  0
  -27.0432  -10.7406   -9.0459 C   0  0  0  0  0  0  0  0  0  0  0  0
  -26.6679   -9.7763   -9.9911 C   0  0  0  0  0  0  0  0  0  0  0  0
  -27.4158   -9.6162  -11.1606 C   0  0  0  0  0  0  0  0  0  0  0  0
  -28.5270  -10.4219  -11.3830 C   0  0  0  0  0  0  0  0  0  0  0  0
  -29.2618  -10.2329  -12.4864 F   0  0  0  0  0  0  0  0  0  0  0  0
  -28.8951  -11.4032  -10.4748 C   0  0  0  0  0  0  0  0  0  0  0  0
  -28.1495  -11.5619   -9.3142 C   0  0  0  0  0  0  0  0  0  0  0  0
  -28.5580  -12.4657   -8.4086 F   0  0  0  0  0  0  0  0  0  0  0  0
  -27.9761   -9.0843   -4.1693 N   0  0  0  0  0  0  0  0  0  0  0  0
  -28.6741   -9.8132   -4.0221 H   0  0  0  0  0  0  0  0  0  0  0  0
  -28.4361   -7.7751   -4.3662 C   0  0  0  0  0  0  0  0  0  0  0  0
  -27.5263   -6.7130   -4.4046 C   0  0  0  0  0  0  0  0  0  0  0  0
  -27.9752   -5.3909   -4.4985 C   0  0  0  0  0  0  0  0  0  0  0  0
  -29.3478   -5.1132   -4.4915 C   0  0  0  0  0  0  0  0  0  0  0  0
  -30.2496   -6.1680   -4.5075 C   0  0  0  0  0  0  0  0  0  0  0  0
  -31.5697   -5.9327   -4.5592 F   0  0  0  0  0  0  0  0  0  0  0  0
  -29.8043   -7.4810   -4.4401 C   0  0  0  0  0  0  0  0  0  0  0  0
  -29.8805   -3.8435   -4.4788 O   0  0  0  0  0  0  0  0  0  0  0  0
  -29.1201   -2.7996   -4.9618 C   0  0  0  0  0  0  0  0  0  0  0  0
  -28.5889   -1.8242   -4.1168 C   0  0  0  0  0  0  0  0  0  0  0  0
  -27.7559   -0.8722   -4.6653 C   0  0  0  0  0  0  0  0  0  0  0  0
  -27.4730   -0.7959   -5.9818 N   0  0  0  0  0  0  0  0  0  0  0  0
  -28.0618   -1.6893   -6.8030 C   0  0  0  0  0  0  0  0  0  0  0  0
  -27.7125   -1.5460   -8.1446 N   0  0  0  0  0  0  0  0  0  0  0  0
  -28.9048   -2.7033   -6.3399 C   0  0  0  0  0  0  0  0  0  0  0  0
  -29.8484   -4.0229   -7.6781 I   0  0  0  0  0  0  0  0  0  0  0  0
  -27.1524   -0.7023   -8.2226 H   0  0  0  0  0  0  0  0  0  0  0  0
  -28.5267   -1.5383   -8.7474 H   0  0  0  0  0  0  0  0  0  0  0  0
  1  2  1  0  0  0
  2  3  2  0  0  0
  2 12  1  0  0  0
  3  4  1  0  0  0
  4  5  1  0  0  0
  4  9  2  0  0  0
  5  6  2  0  0  0
  6  7  1  0  0  0
  7  8  2  0  0  0
  8 21  1  0  0  0
  8  9  1  0  0  0
 21 23  1  0  0  0
 21 22  1  0  0  0
 23 24  1  0  0  0
 23 29  2  0  0  0
 24 25  2  0  0  0
 25 26  1  0  0  0
 26 30  1  0  0  0
 26 27  2  0  0  0
 30 31  1  0  0  0
 31 32  1  0  0  0
 31 37  2  0  0  0
 32 33  2  0  0  0
 33 34  1  0  0  0
 34 35  2  0  0  0
 35 36  1  0  0  0
 35 37  1  0  0  0
 36 39  1  0  0  0
 36 40  1  0  0  0
 37 38  1  0  0  0
 27 28  1  0  0  0
 27 29  1  0  0  0
  9 10  1  0  0  0
 10 11  2  0  0  0
 10 12  1  0  0  0
 12 13  1  0  0  0
 13 14  1  0  0  0
 13 19  2  0  0  0
 14 15  2  0  0  0
 15 16  1  0  0  0
 16 17  1  0  0  0
 16 18  2  0  0  0
 18 19  1  0  0  0
 19 20  1  0  0  0
M  END
> <minimizedAffinity>
-9.15383

$$$$
