CHEMBL2386804


 40 44  0  0  0  0  0  0  0  0999 V2000
  -13.6157    1.4444  -17.2511 C   0  0  0  0  0  0  0  0  0  0  0  0
  -14.8866    1.0250  -16.9850 C   0  0  0  0  0  0  0  0  0  0  0  0
  -15.5073    2.0970  -16.2755 C   0  0  0  0  0  0  0  0  0  0  0  0
  -14.6486    3.1129  -16.0963 N   0  0  0  0  0  0  0  0  0  0  0  0
  -13.5286    2.6948  -16.7026 N   0  0  0  0  0  0  0  0  0  0  0  0
  -12.7212    3.3089  -16.7536 H   0  0  0  0  0  0  0  0  0  0  0  0
  -16.8808    2.1499  -15.7843 C   0  0  0  0  0  0  0  0  0  0  0  0
  -17.4055    1.0397  -15.1339 C   0  0  0  0  0  0  0  0  0  0  0  0
  -18.7076    1.0521  -14.6527 C   0  0  0  0  0  0  0  0  0  0  0  0
  -19.5379    2.1617  -14.8068 C   0  0  0  0  0  0  0  0  0  0  0  0
  -19.0203    3.2882  -15.4514 C   0  0  0  0  0  0  0  0  0  0  0  0
  -17.6993    3.2789  -15.9396 C   0  0  0  0  0  0  0  0  0  0  0  0
  -20.8807    2.1748  -14.3324 N   0  0  0  0  0  0  0  0  0  0  0  0
  -21.6610    1.0454  -14.1802 C   0  0  0  0  0  0  0  0  0  0  0  0
  -21.2883   -0.0871  -14.4604 O   0  0  0  0  0  0  0  0  0  0  0  0
  -22.9288    1.3066  -13.6926 N   0  0  0  0  0  0  0  0  0  0  0  0
  -21.2687    3.0761  -14.0919 H   0  0  0  0  0  0  0  0  0  0  0  0
  -23.3037    2.2297  -13.8505 H   0  0  0  0  0  0  0  0  0  0  0  0
  -23.8566    0.2693  -13.3977 C   0  0  0  0  0  0  0  0  0  0  0  0
  -24.3075   -0.6390  -14.3678 C   0  0  0  0  0  0  0  0  0  0  0  0
  -25.2993   -1.5759  -14.0820 C   0  0  0  0  0  0  0  0  0  0  0  0
  -25.8245   -1.6497  -12.8008 C   0  0  0  0  0  0  0  0  0  0  0  0
  -25.3447   -0.7932  -11.8078 C   0  0  0  0  0  0  0  0  0  0  0  0
  -24.3604    0.1590  -12.1009 C   0  0  0  0  0  0  0  0  0  0  0  0
  -12.5853    0.8567  -17.9052 N   0  0  0  0  0  0  0  0  0  0  0  0
  -11.7028    0.7427  -17.4138 H   0  0  0  0  0  0  0  0  0  0  0  0
  -12.5230   -0.2659  -22.5539 C   0  0  0  0  0  0  0  0  0  0  0  0
  -12.7233   -0.7041  -21.1375 C   0  0  0  0  0  0  0  0  0  0  0  0
  -12.5933    0.2477  -20.2054 N   0  0  0  0  0  0  0  0  0  0  0  0
  -12.7674   -0.1029  -18.9222 C   0  0  0  0  0  0  0  0  0  0  0  0
  -13.0017   -1.4055  -18.5705 C   0  0  0  0  0  0  0  0  0  0  0  0
  -13.0698   -2.3429  -19.5852 C   0  0  0  0  0  0  0  0  0  0  0  0
  -12.9647   -1.9992  -20.8794 N   0  0  0  0  0  0  0  0  0  0  0  0
  -13.2435   -3.6725  -19.1961 N   0  0  0  0  0  0  0  0  0  0  0  0
  -13.3650   -3.9352  -17.7558 C   0  0  0  0  0  0  0  0  0  0  0  0
  -13.2238   -5.4676  -17.5462 C   0  0  0  0  0  0  0  0  0  0  0  0
  -14.2136   -6.2600  -18.3223 N   0  0  0  0  0  0  0  0  0  0  0  0
  -13.9420   -7.6905  -18.1936 C   0  0  0  0  0  0  0  0  0  0  0  0
  -14.1763   -5.8667  -19.7501 C   0  0  0  0  0  0  0  0  0  0  0  0
  -14.3198   -4.3446  -19.9512 C   0  0  0  0  0  0  0  0  0  0  0  0
 27 28  1  0  0  0
 28 29  1  0  0  0
 28 33  2  0  0  0
 29 30  2  0  0  0
 30 25  1  0  0  0
 30 31  1  0  0  0
 25  1  1  0  0  0
 25 26  1  0  0  0
  1  2  2  0  0  0
  1  5  1  0  0  0
  2  3  1  0  0  0
  3  7  1  0  0  0
  3  4  2  0  0  0
  7  8  1  0  0  0
  7 12  2  0  0  0
  8  9  2  0  0  0
  9 10  1  0  0  0
 10 13  1  0  0  0
 10 11  2  0  0  0
 13 14  1  0  0  0
 13 17  1  0  0  0
 14 15  2  0  0  0
 14 16  1  0  0  0
 16 19  1  0  0  0
 16 18  1  0  0  0
 19 20  1  0  0  0
 19 24  2  0  0  0
 20 21  2  0  0  0
 21 22  1  0  0  0
 22 23  2  0  0  0
 23 24  1  0  0  0
 11 12  1  0  0  0
  4  5  1  0  0  0
  5  6  1  0  0  0
 31 32  2  0  0  0
 32 34  1  0  0  0
 32 33  1  0  0  0
 34 35  1  0  0  0
 34 40  1  0  0  0
 35 36  1  0  0  0
 36 37  1  0  0  0
 37 38  1  0  0  0
 37 39  1  0  0  0
 39 40  1  0  0  0
M  END
> <minimizedAffinity>
-9.73150

$$$$
