CHEMBL74034


 28 31  0  0  0  0  0  0  0  0999 V2000
  -26.3345   -2.0091  -10.8559 C   0  0  0  0  0  0  0  0  0  0  0  0
  -25.1855   -1.5044  -10.3593 N   0  0  0  0  0  0  0  0  0  0  0  0
  -24.2873   -0.8686  -11.1638 N   0  0  0  0  0  0  0  0  0  0  0  0
  -24.5212   -0.7144  -12.4802 C   0  0  0  0  0  0  0  0  0  0  0  0
  -25.7348   -1.1739  -13.0468 C   0  0  0  0  0  0  0  0  0  0  0  0
  -26.0353   -1.0836  -14.4299 C   0  0  0  0  0  0  0  0  0  0  0  0
  -27.2224   -1.5966  -14.9619 C   0  0  0  0  0  0  0  0  0  0  0  0
  -28.1478   -2.2036  -14.1287 C   0  0  0  0  0  0  0  0  0  0  0  0
  -27.8788   -2.3147  -12.7665 C   0  0  0  0  0  0  0  0  0  0  0  0
  -26.6752   -1.8179  -12.2034 C   0  0  0  0  0  0  0  0  0  0  0  0
  -27.1595   -2.7971  -10.0093 N   0  0  0  0  0  0  0  0  0  0  0  0
  -27.8188   -3.3314  -10.5662 H   0  0  0  0  0  0  0  0  0  0  0  0
  -29.1486   -1.0197   -4.7065 Cl  0  0  0  0  0  0  0  0  0  0  0  0
  -28.6416   -1.5162   -6.2738 C   0  0  0  0  0  0  0  0  0  0  0  0
  -28.0256   -0.6028   -7.1293 C   0  0  0  0  0  0  0  0  0  0  0  0
  -27.5604   -1.0166   -8.3835 C   0  0  0  0  0  0  0  0  0  0  0  0
  -27.6721   -2.3593   -8.7694 C   0  0  0  0  0  0  0  0  0  0  0  0
  -28.3851   -3.2376   -7.9326 C   0  0  0  0  0  0  0  0  0  0  0  0
  -28.8449   -2.8255   -6.6813 C   0  0  0  0  0  0  0  0  0  0  0  0
  -23.5089   -0.1927  -13.2939 N   0  0  0  0  0  0  0  0  0  0  0  0
  -23.3539   -0.7253  -14.1405 H   0  0  0  0  0  0  0  0  0  0  0  0
  -23.4130    1.2528  -13.4432 C   0  0  0  0  0  0  0  0  0  0  0  0
  -22.0574    1.5498  -14.0315 C   0  0  0  0  0  0  0  0  0  0  0  0
  -21.6260    2.8646  -14.2315 C   0  0  0  0  0  0  0  0  0  0  0  0
  -20.4115    3.0736  -14.8667 C   0  0  0  0  0  0  0  0  0  0  0  0
  -19.6130    2.0803  -15.3130 N   0  0  0  0  0  0  0  0  0  0  0  0
  -20.0516    0.8184  -15.1166 C   0  0  0  0  0  0  0  0  0  0  0  0
  -21.2457    0.5061  -14.4888 C   0  0  0  0  0  0  0  0  0  0  0  0
 13 14  1  0  0  0
 14 15  1  0  0  0
 14 19  2  0  0  0
 15 16  2  0  0  0
 16 17  1  0  0  0
 17 11  1  0  0  0
 17 18  2  0  0  0
 11  1  1  0  0  0
 11 12  1  0  0  0
  1  2  1  0  0  0
  1 10  2  0  0  0
  2  3  2  0  0  0
  3  4  1  0  0  0
  4 20  1  0  0  0
  4  5  2  0  0  0
 20 22  1  0  0  0
 20 21  1  0  0  0
 22 23  1  0  0  0
 23 24  1  0  0  0
 23 28  2  0  0  0
 24 25  2  0  0  0
 25 26  1  0  0  0
 26 27  2  0  0  0
 27 28  1  0  0  0
  5  6  1  0  0  0
  5 10  1  0  0  0
  6  7  2  0  0  0
  7  8  1  0  0  0
  8  9  2  0  0  0
  9 10  1  0  0  0
 18 19  1  0  0  0
M  END
> <minimizedAffinity>
-9.39612

$$$$
