CHEMBL262468


 33 37  0  0  0  0  0  0  0  0999 V2000
  -28.2170   -2.4357   -8.4815 C   0  0  0  0  0  0  0  0  0  0  0  0
  -27.8954   -1.6164   -7.3943 C   0  0  0  0  0  0  0  0  0  0  0  0
  -27.9876   -2.1002   -6.0576 C   0  0  0  0  0  0  0  0  0  0  0  0
  -28.5095   -3.3704   -5.7785 C   0  0  0  0  0  0  0  0  0  0  0  0
  -29.2006   -3.9409   -6.8540 C   0  0  0  0  0  0  0  0  0  0  0  0
  -28.8868   -3.6246   -8.1900 C   0  0  0  0  0  0  0  0  0  0  0  0
  -30.6096   -4.4133   -6.5216 C   0  0  0  0  0  0  0  0  0  0  0  0
  -31.1507   -3.4784   -5.4003 C   0  0  0  0  0  0  0  0  0  0  0  0
  -30.3021   -3.5223   -4.1017 C   0  0  0  0  0  0  0  0  0  0  0  0
  -31.0462   -4.7909   -3.0411 S   0  0  0  0  0  0  0  0  0  0  0  0
  -29.8957   -5.9893   -3.6315 C   0  0  0  0  0  0  0  0  0  0  0  0
  -30.1569   -7.2969   -3.4963 N   0  0  0  0  0  0  0  0  0  0  0  0
  -29.1539   -8.0853   -3.8458 C   0  0  0  0  0  0  0  0  0  0  0  0
  -27.9202   -7.6641   -4.1784 N   0  0  0  0  0  0  0  0  0  0  0  0
  -27.7265   -6.3339   -4.2590 C   0  0  0  0  0  0  0  0  0  0  0  0
  -26.3845   -5.9686   -4.3230 N   0  0  0  0  0  0  0  0  0  0  0  0
  -28.7446   -5.4193   -4.1403 C   0  0  0  0  0  0  0  0  0  0  0  0
  -28.8068   -3.9062   -4.3619 C   0  0  0  0  0  0  0  0  0  0  0  0
  -25.8719   -6.8529   -4.3427 H   0  0  0  0  0  0  0  0  0  0  0  0
  -26.1285   -5.4726   -3.4726 H   0  0  0  0  0  0  0  0  0  0  0  0
  -26.9203   -1.6858  -11.8646 N   0  0  0  0  0  0  0  0  0  0  0  0
  -26.7815   -1.7751  -10.4694 C   0  0  0  0  0  0  0  0  0  0  0  0
  -25.7493   -1.5535   -9.8517 O   0  0  0  0  0  0  0  0  0  0  0  0
  -27.9824   -2.1345   -9.8564 N   0  0  0  0  0  0  0  0  0  0  0  0
  -27.8142   -1.9363  -12.2552 H   0  0  0  0  0  0  0  0  0  0  0  0
  -28.7980   -2.1602  -10.4472 H   0  0  0  0  0  0  0  0  0  0  0  0
  -22.3899    0.2223  -12.8040 C   0  0  0  0  0  0  0  0  0  0  0  0
  -23.6783   -0.4007  -13.2696 C   0  0  0  0  0  0  0  0  0  0  0  0
  -23.8673   -0.6153  -14.6355 C   0  0  0  0  0  0  0  0  0  0  0  0
  -25.0502   -1.1854  -15.0893 C   0  0  0  0  0  0  0  0  0  0  0  0
  -26.0600   -1.5462  -14.1902 C   0  0  0  0  0  0  0  0  0  0  0  0
  -25.9117   -1.3460  -12.8181 C   0  0  0  0  0  0  0  0  0  0  0  0
  -24.7020   -0.7723  -12.3659 C   0  0  0  0  0  0  0  0  0  0  0  0
 27 28  1  0  0  0
 28 29  1  0  0  0
 28 33  2  0  0  0
 29 30  2  0  0  0
 30 31  1  0  0  0
 31 32  2  0  0  0
 32 21  1  0  0  0
 32 33  1  0  0  0
 21 22  1  0  0  0
 21 25  1  0  0  0
 22 23  2  0  0  0
 22 24  1  0  0  0
 24  1  1  0  0  0
 24 26  1  0  0  0
  1  2  1  0  0  0
  1  6  2  0  0  0
  2  3  2  0  0  0
  3  4  1  0  0  0
  4  5  2  0  0  0
  4 18  1  0  0  0
  5  6  1  0  0  0
  5  7  1  0  0  0
  7  8  1  0  0  0
  8  9  1  0  0  0
  9 10  1  0  0  0
  9 18  1  0  0  0
 10 11  1  0  0  0
 11 12  1  0  0  0
 11 17  2  0  0  0
 12 13  2  0  0  0
 13 14  1  0  0  0
 14 15  2  0  0  0
 15 16  1  0  0  0
 15 17  1  0  0  0
 16 19  1  0  0  0
 16 20  1  0  0  0
 17 18  1  0  0  0
M  END
> <minimizedAffinity>
-10.06375

$$$$
