CHEMBL213230


 38 43  0  0  0  0  0  0  0  0999 V2000
  -27.3148   -1.5176  -10.4338 C   0  0  0  0  0  0  0  0  0  0  0  0
  -27.8558   -1.9750  -11.6649 C   0  0  0  0  0  0  0  0  0  0  0  0
  -27.1587   -1.8888  -12.8668 C   0  0  0  0  0  0  0  0  0  0  0  0
  -25.9438   -1.2533  -12.8286 C   0  0  0  0  0  0  0  0  0  0  0  0
  -25.4020   -0.6999  -11.6381 C   0  0  0  0  0  0  0  0  0  0  0  0
  -26.0703   -0.8504  -10.4314 C   0  0  0  0  0  0  0  0  0  0  0  0
  -24.0765    0.0493  -11.8840 C   0  0  0  0  0  0  0  0  0  0  0  0
  -23.9727   -0.2248  -13.3451 C   0  0  0  0  0  0  0  0  0  0  0  0
  -23.1783    0.0420  -14.4646 C   0  0  0  0  0  0  0  0  0  0  0  0
  -23.6988   -0.4862  -15.5828 N   0  0  0  0  0  0  0  0  0  0  0  0
  -24.8273   -1.1219  -15.1657 N   0  0  0  0  0  0  0  0  0  0  0  0
  -25.0126   -0.9526  -13.8452 C   0  0  0  0  0  0  0  0  0  0  0  0
  -25.3948   -1.6224  -15.8387 H   0  0  0  0  0  0  0  0  0  0  0  0
  -21.9412    0.8111  -14.4340 C   0  0  0  0  0  0  0  0  0  0  0  0
  -21.8334    2.0921  -13.9318 C   0  0  0  0  0  0  0  0  0  0  0  0
  -20.2493    2.6944  -14.0779 S   0  0  0  0  0  0  0  0  0  0  0  0
  -19.6895    1.2501  -14.8279 C   0  0  0  0  0  0  0  0  0  0  0  0
  -20.7006    0.3127  -14.9283 C   0  0  0  0  0  0  0  0  0  0  0  0
  -18.2446    1.1592  -15.1996 C   0  0  0  0  0  0  0  0  0  0  0  0
  -17.6823   -0.1281  -14.7902 N   0  0  0  0  0  0  0  0  0  0  0  0
  -17.5585   -0.7995  -15.5513 H   0  0  0  0  0  0  0  0  0  0  0  0
  -16.2172    0.0255  -13.9447 S   0  0  0  0  0  0  0  0  0  0  0  0
  -15.1750    0.1386  -14.9336 O   0  0  0  0  0  0  0  0  0  0  0  0
  -16.4130    1.0360  -12.9262 O   0  0  0  0  0  0  0  0  0  0  0  0
  -16.0286   -1.5469  -13.1487 C   0  0  0  0  0  0  0  0  0  0  0  0
  -15.8617   -1.5956  -11.7614 C   0  0  0  0  0  0  0  0  0  0  0  0
  -15.7638   -2.8337  -11.1253 C   0  0  0  0  0  0  0  0  0  0  0  0
  -15.8505   -4.0119  -11.8691 C   0  0  0  0  0  0  0  0  0  0  0  0
  -16.0313   -3.9584  -13.2528 C   0  0  0  0  0  0  0  0  0  0  0  0
  -16.1131   -2.7245  -13.8989 C   0  0  0  0  0  0  0  0  0  0  0  0
  -28.0829   -1.7377   -9.1387 C   0  0  0  0  0  0  0  0  0  0  0  0
  -30.8161   -3.5834   -5.6225 C   0  0  0  0  0  0  0  0  0  0  0  0
  -29.4557   -3.4921   -6.1412 N   0  0  0  0  0  0  0  0  0  0  0  0
  -29.3667   -4.0405   -7.5045 C   0  0  0  0  0  0  0  0  0  0  0  0
  -27.9123   -3.9553   -8.0174 C   0  0  0  0  0  0  0  0  0  0  0  0
  -27.4000   -2.5701   -8.1252 N   0  0  0  0  0  0  0  0  0  0  0  0
  -27.5415   -1.9673   -6.7717 C   0  0  0  0  0  0  0  0  0  0  0  0
  -28.9528   -2.1041   -6.1269 C   0  0  0  0  0  0  0  0  0  0  0  0
 32 33  1  0  0  0
 33 34  1  0  0  0
 33 38  1  0  0  0
 34 35  1  0  0  0
 35 36  1  0  0  0
 36 31  1  0  0  0
 36 37  1  0  0  0
 31  1  1  0  0  0
  1  2  1  0  0  0
  1  6  2  0  0  0
  2  3  2  0  0  0
  3  4  1  0  0  0
  4  5  2  0  0  0
  4 12  1  0  0  0
  5  6  1  0  0  0
  5  7  1  0  0  0
  7  8  1  0  0  0
  8  9  1  0  0  0
  8 12  2  0  0  0
  9 14  1  0  0  0
  9 10  2  0  0  0
 14 15  2  0  0  0
 14 18  1  0  0  0
 15 16  1  0  0  0
 16 17  1  0  0  0
 17 19  1  0  0  0
 17 18  2  0  0  0
 19 20  1  0  0  0
 20 22  1  0  0  0
 20 21  1  0  0  0
 22 23  2  0  0  0
 22 24  2  0  0  0
 22 25  1  0  0  0
 25 26  1  0  0  0
 25 30  2  0  0  0
 26 27  2  0  0  0
 27 28  1  0  0  0
 28 29  2  0  0  0
 29 30  1  0  0  0
 10 11  1  0  0  0
 11 12  1  0  0  0
 11 13  1  0  0  0
 37 38  1  0  0  0
M  END
> <minimizedAffinity>
-9.01181

$$$$
