CHEMBL193752


 33 36  0  0  0  0  0  0  0  0999 V2000
  -17.3705    2.4156  -15.4180 C   0  0  0  0  0  0  0  0  0  0  0  0
  -17.2452    3.4699  -16.2761 O   0  0  0  0  0  0  0  0  0  0  0  0
  -15.9341    3.5566  -16.6462 C   0  0  0  0  0  0  0  0  0  0  0  0
  -15.4974    4.4694  -17.5219 N   0  0  0  0  0  0  0  0  0  0  0  0
  -14.1853    4.3442  -17.7396 C   0  0  0  0  0  0  0  0  0  0  0  0
  -13.3381    3.4610  -17.1817 N   0  0  0  0  0  0  0  0  0  0  0  0
  -13.8175    2.5761  -16.2819 C   0  0  0  0  0  0  0  0  0  0  0  0
  -12.8862    1.7267  -15.7220 N   0  0  0  0  0  0  0  0  0  0  0  0
  -15.1876    2.5832  -15.9990 C   0  0  0  0  0  0  0  0  0  0  0  0
  -16.1194    1.8408  -15.2025 C   0  0  0  0  0  0  0  0  0  0  0  0
  -12.0037    1.6946  -16.2146 H   0  0  0  0  0  0  0  0  0  0  0  0
  -13.1798    0.9307  -15.1832 H   0  0  0  0  0  0  0  0  0  0  0  0
  -21.4732    1.7418  -14.3387 C   0  0  0  0  0  0  0  0  0  0  0  0
  -20.8787    2.9778  -14.1109 C   0  0  0  0  0  0  0  0  0  0  0  0
  -19.5158    3.1581  -14.3715 C   0  0  0  0  0  0  0  0  0  0  0  0
  -18.7342    2.1439  -14.9447 C   0  0  0  0  0  0  0  0  0  0  0  0
  -19.3316    0.8923  -15.1320 C   0  0  0  0  0  0  0  0  0  0  0  0
  -20.6862    0.6942  -14.8255 C   0  0  0  0  0  0  0  0  0  0  0  0
  -23.1145    0.0587  -13.9763 C   0  0  0  0  0  0  0  0  0  0  0  0
  -22.7886    1.4366  -14.1262 O   0  0  0  0  0  0  0  0  0  0  0  0
  -15.9121    0.6486  -14.3926 C   0  0  0  0  0  0  0  0  0  0  0  0
  -15.1730   -0.4402  -14.8714 C   0  0  0  0  0  0  0  0  0  0  0  0
  -14.7880   -1.4706  -14.0066 C   0  0  0  0  0  0  0  0  0  0  0  0
  -15.2162   -1.4729  -12.6796 C   0  0  0  0  0  0  0  0  0  0  0  0
  -16.0303   -0.4285  -12.2251 C   0  0  0  0  0  0  0  0  0  0  0  0
  -16.3454    0.6412  -13.0638 C   0  0  0  0  0  0  0  0  0  0  0  0
  -14.8602   -2.4537  -11.7382 N   0  0  0  0  0  0  0  0  0  0  0  0
  -15.5401   -3.5957  -11.4161 C   0  0  0  0  0  0  0  0  0  0  0  0
  -14.8795   -4.3248  -10.4696 N   0  0  0  0  0  0  0  0  0  0  0  0
  -16.6053   -3.9987  -11.8575 O   0  0  0  0  0  0  0  0  0  0  0  0
  -14.0169   -2.2925  -11.2097 H   0  0  0  0  0  0  0  0  0  0  0  0
  -13.8740   -4.3738  -10.5312 H   0  0  0  0  0  0  0  0  0  0  0  0
  -15.3297   -5.2147  -10.2841 H   0  0  0  0  0  0  0  0  0  0  0  0
 19 20  1  0  0  0
 20 13  1  0  0  0
 13 14  1  0  0  0
 13 18  2  0  0  0
 14 15  2  0  0  0
 15 16  1  0  0  0
 16  1  1  0  0  0
 16 17  2  0  0  0
  1  2  1  0  0  0
  1 10  2  0  0  0
  2  3  1  0  0  0
  3  4  1  0  0  0
  3  9  2  0  0  0
  4  5  2  0  0  0
  5  6  1  0  0  0
  6  7  2  0  0  0
  7  8  1  0  0  0
  7  9  1  0  0  0
  8 11  1  0  0  0
  8 12  1  0  0  0
  9 10  1  0  0  0
 10 21  1  0  0  0
 21 22  1  0  0  0
 21 26  2  0  0  0
 22 23  2  0  0  0
 23 24  1  0  0  0
 24 27  1  0  0  0
 24 25  2  0  0  0
 27 28  1  0  0  0
 27 31  1  0  0  0
 28 29  1  0  0  0
 28 30  2  0  0  0
 29 32  1  0  0  0
 29 33  1  0  0  0
 25 26  1  0  0  0
 17 18  1  0  0  0
M  END
> <minimizedAffinity>
-8.42707

$$$$
