CHEMBL3898974


 30 33  0  0  0  0  0  0  0  0999 V2000
  -28.9686   -5.1054   -5.3000 N   0  0  0  0  0  0  0  0  0  0  0  0
  -29.0176   -5.8058   -4.1011 C   0  0  0  0  0  0  0  0  0  0  0  0
  -28.9931   -7.1403   -4.0599 C   0  0  0  0  0  0  0  0  0  0  0  0
  -28.9558   -7.8964   -5.2769 C   0  0  0  0  0  0  0  0  0  0  0  0
  -28.9270   -7.3065   -6.4824 C   0  0  0  0  0  0  0  0  0  0  0  0
  -28.9374   -5.7750   -6.5398 C   0  0  0  0  0  0  0  0  0  0  0  0
  -28.9846   -5.2183   -7.6395 O   0  0  0  0  0  0  0  0  0  0  0  0
  -28.9781   -8.0388   -7.6787 N   0  0  0  0  0  0  0  0  0  0  0  0
  -30.2591   -8.6838   -8.0949 C   0  0  0  0  0  0  0  0  0  0  0  0
  -30.0758  -10.1400   -8.5263 C   0  0  0  0  0  0  0  0  0  0  0  0
  -29.0732  -10.1132   -9.6491 C   0  0  0  0  0  0  0  0  0  0  0  0
  -29.3840  -10.6493  -10.8438 N   0  0  0  0  0  0  0  0  0  0  0  0
  -28.5087  -10.4310  -11.8319 C   0  0  0  0  0  0  0  0  0  0  0  0
  -28.8558  -10.8510  -13.0947 N   0  0  0  0  0  0  0  0  0  0  0  0
  -27.3276   -9.8136  -11.6932 N   0  0  0  0  0  0  0  0  0  0  0  0
  -27.0553   -9.2981  -10.4805 C   0  0  0  0  0  0  0  0  0  0  0  0
  -27.9207   -9.3873   -9.4200 C   0  0  0  0  0  0  0  0  0  0  0  0
  -27.7326   -8.7297   -8.0948 C   0  0  0  0  0  0  0  0  0  0  0  0
  -29.5194  -11.6098  -13.0454 H   0  0  0  0  0  0  0  0  0  0  0  0
  -28.0310  -10.9667  -13.6645 H   0  0  0  0  0  0  0  0  0  0  0  0
  -29.0085   -0.8312   -5.3377 C   0  0  0  0  0  0  0  0  0  0  0  0
  -30.1881   -1.5764   -5.5074 C   0  0  0  0  0  0  0  0  0  0  0  0
  -30.1798   -2.9767   -5.4696 C   0  0  0  0  0  0  0  0  0  0  0  0
  -28.9839   -3.6771   -5.3019 C   0  0  0  0  0  0  0  0  0  0  0  0
  -27.8018   -2.9512   -5.1307 C   0  0  0  0  0  0  0  0  0  0  0  0
  -27.8192   -1.5532   -5.1299 C   0  0  0  0  0  0  0  0  0  0  0  0
  -28.0602    1.3341   -4.3067 C   0  0  0  0  0  0  0  0  0  0  0  0
  -28.9828    0.7074   -5.3763 C   0  0  0  0  0  0  0  0  0  0  0  0
  -30.4020    1.2728   -5.1362 C   0  0  0  0  0  0  0  0  0  0  0  0
  -28.4836    1.1847   -6.7563 C   0  0  0  0  0  0  0  0  0  0  0  0
 27 28  1  0  0  0
 28 29  1  0  0  0
 28 30  1  0  0  0
 28 21  1  0  0  0
 21 22  1  0  0  0
 21 26  2  0  0  0
 22 23  2  0  0  0
 23 24  1  0  0  0
 24  1  1  0  0  0
 24 25  2  0  0  0
  1  2  1  0  0  0
  1  6  1  0  0  0
  2  3  2  0  0  0
  3  4  1  0  0  0
  4  5  2  0  0  0
  5  8  1  0  0  0
  5  6  1  0  0  0
  8  9  1  0  0  0
  8 18  1  0  0  0
  9 10  1  0  0  0
 10 11  1  0  0  0
 11 12  1  0  0  0
 11 17  2  0  0  0
 12 13  2  0  0  0
 13 14  1  0  0  0
 13 15  1  0  0  0
 14 19  1  0  0  0
 14 20  1  0  0  0
 15 16  2  0  0  0
 16 17  1  0  0  0
 17 18  1  0  0  0
  6  7  2  0  0  0
 25 26  1  0  0  0
M  END
> <minimizedAffinity>
-8.41713

$$$$
