CHEMBL2005475


 26 29  0  0  0  0  0  0  0  0999 V2000
  -28.3296   -3.0322   -7.6612 C   0  0  0  0  0  0  0  0  0  0  0  0
  -28.7958   -4.3084   -7.9958 C   0  0  0  0  0  0  0  0  0  0  0  0
  -29.2520   -4.9412   -6.8428 C   0  0  0  0  0  0  0  0  0  0  0  0
  -29.8271   -6.1689   -6.5038 C   0  0  0  0  0  0  0  0  0  0  0  0
  -30.1128   -6.1512   -5.1738 N   0  0  0  0  0  0  0  0  0  0  0  0
  -29.6702   -4.9428   -4.7324 N   0  0  0  0  0  0  0  0  0  0  0  0
  -29.1466   -4.2107   -5.7329 C   0  0  0  0  0  0  0  0  0  0  0  0
  -28.4566   -2.7232   -5.9390 S   0  0  0  0  0  0  0  0  0  0  0  0
  -29.7726   -4.7114   -3.7533 H   0  0  0  0  0  0  0  0  0  0  0  0
  -30.0970   -7.3497   -7.3216 C   0  0  0  0  0  0  0  0  0  0  0  0
  -29.1022   -7.9075   -8.1367 C   0  0  0  0  0  0  0  0  0  0  0  0
  -29.3501   -9.0736   -8.8644 C   0  0  0  0  0  0  0  0  0  0  0  0
  -30.5947   -9.6943   -8.7844 C   0  0  0  0  0  0  0  0  0  0  0  0
  -31.5959   -9.1458   -7.9861 C   0  0  0  0  0  0  0  0  0  0  0  0
  -31.3484   -7.9797   -7.2587 C   0  0  0  0  0  0  0  0  0  0  0  0
  -27.2136   -1.0292   -8.1986 O   0  0  0  0  0  0  0  0  0  0  0  0
  -27.8200   -2.0267   -8.5805 C   0  0  0  0  0  0  0  0  0  0  0  0
  -28.0686   -2.2650   -9.9161 N   0  0  0  0  0  0  0  0  0  0  0  0
  -28.6302   -3.0729  -10.1533 H   0  0  0  0  0  0  0  0  0  0  0  0
  -27.6188   -1.3819  -10.9690 C   0  0  0  0  0  0  0  0  0  0  0  0
  -26.3258   -1.8452  -11.6642 C   0  0  0  0  0  0  0  0  0  0  0  0
  -25.0540   -1.3359  -10.9644 C   0  0  0  0  0  0  0  0  0  0  0  0
  -23.7847   -1.8005  -11.6749 C   0  0  0  0  0  0  0  0  0  0  0  0
  -23.7969   -1.3875  -13.1424 C   0  0  0  0  0  0  0  0  0  0  0  0
  -25.0363   -1.9229  -13.8517 C   0  0  0  0  0  0  0  0  0  0  0  0
  -26.3209   -1.4748  -13.1567 C   0  0  0  0  0  0  0  0  0  0  0  0
 16 17  2  0  0  0
 17 18  1  0  0  0
 17  1  1  0  0  0
 18 20  1  0  0  0
 18 19  1  0  0  0
 20 21  1  0  0  0
 21 22  1  0  0  0
 21 26  1  0  0  0
 22 23  1  0  0  0
 23 24  1  0  0  0
 24 25  1  0  0  0
 25 26  1  0  0  0
  1  2  2  0  0  0
  1  8  1  0  0  0
  2  3  1  0  0  0
  3  4  1  0  0  0
  3  7  2  0  0  0
  4 10  1  0  0  0
  4  5  2  0  0  0
 10 11  1  0  0  0
 10 15  2  0  0  0
 11 12  2  0  0  0
 12 13  1  0  0  0
 13 14  2  0  0  0
 14 15  1  0  0  0
  5  6  1  0  0  0
  6  7  1  0  0  0
  6  9  1  0  0  0
  7  8  1  0  0  0
M  END
> <minimizedAffinity>
-9.35519

$$$$
