CHEMBL2016922


 30 34  0  0  0  0  0  0  0  0999 V2000
  -23.8492   12.3034  -19.9115 O   0  0  0  0  0  0  0  0  0  0  0  0
  -22.8954   12.1885  -19.1299 C   0  0  0  0  0  0  0  0  0  0  0  0
  -21.5704   12.2182  -19.5902 N   0  0  0  0  0  0  0  0  0  0  0  0
  -21.4599   12.4888  -21.0376 C   0  0  0  0  0  0  0  0  0  0  0  0
  -20.0767   12.5321  -21.6942 C   0  0  0  0  0  0  0  0  0  0  0  0
  -19.0705   11.8667  -20.8751 C   0  0  0  0  0  0  0  0  0  0  0  0
  -17.7755   11.6777  -21.2442 N   0  0  0  0  0  0  0  0  0  0  0  0
  -17.2168   10.9953  -20.2603 C   0  0  0  0  0  0  0  0  0  0  0  0
  -18.1450   10.7399  -19.2677 N   0  0  0  0  0  0  0  0  0  0  0  0
  -19.3171   11.3382  -19.6313 C   0  0  0  0  0  0  0  0  0  0  0  0
  -20.5800   11.3844  -18.8880 C   0  0  0  0  0  0  0  0  0  0  0  0
  -17.9545   10.1921  -18.4314 H   0  0  0  0  0  0  0  0  0  0  0  0
  -15.8813   10.5240  -20.1384 C   0  0  0  0  0  0  0  0  0  0  0  0
  -15.6829    9.2087  -19.9377 C   0  0  0  0  0  0  0  0  0  0  0  0
  -14.3372    8.6621  -19.7863 C   0  0  0  0  0  0  0  0  0  0  0  0
  -14.1198    7.2916  -19.6270 C   0  0  0  0  0  0  0  0  0  0  0  0
  -12.8197    6.8058  -19.4742 C   0  0  0  0  0  0  0  0  0  0  0  0
  -11.7374    7.6877  -19.4692 C   0  0  0  0  0  0  0  0  0  0  0  0
  -11.9488    9.0593  -19.6231 C   0  0  0  0  0  0  0  0  0  0  0  0
  -13.2460    9.5374  -19.7878 C   0  0  0  0  0  0  0  0  0  0  0  0
  -13.4698   10.9090  -19.9745 N   0  0  0  0  0  0  0  0  0  0  0  0
  -14.7074   11.4519  -20.1979 C   0  0  0  0  0  0  0  0  0  0  0  0
  -14.8383   12.6556  -20.4245 O   0  0  0  0  0  0  0  0  0  0  0  0
  -12.6928   11.5546  -19.9801 H   0  0  0  0  0  0  0  0  0  0  0  0
  -23.1376   12.0658  -17.6150 C   0  0  0  0  0  0  0  0  0  0  0  0
  -24.5665   11.8104  -17.3413 N   0  0  0  0  0  0  0  0  0  0  0  0
  -25.0740   12.6382  -16.2391 C   0  0  0  0  0  0  0  0  0  0  0  0
  -25.0266   11.7552  -15.0091 C   0  0  0  0  0  0  0  0  0  0  0  0
  -25.4218   10.4072  -15.5665 C   0  0  0  0  0  0  0  0  0  0  0  0
  -24.8299   10.4024  -16.9696 C   0  0  0  0  0  0  0  0  0  0  0  0
  1  2  2  0  0  0
  2 25  1  0  0  0
  2  3  1  0  0  0
 25 26  1  0  0  0
 26 27  1  0  0  0
 26 30  1  0  0  0
 27 28  1  0  0  0
 28 29  1  0  0  0
 29 30  1  0  0  0
  3  4  1  0  0  0
  3 11  1  0  0  0
  4  5  1  0  0  0
  5  6  1  0  0  0
  6  7  1  0  0  0
  6 10  2  0  0  0
  7  8  2  0  0  0
  8 13  1  0  0  0
  8  9  1  0  0  0
 13 14  2  0  0  0
 13 22  1  0  0  0
 14 15  1  0  0  0
 15 16  1  0  0  0
 15 20  2  0  0  0
 16 17  2  0  0  0
 17 18  1  0  0  0
 18 19  2  0  0  0
 19 20  1  0  0  0
 20 21  1  0  0  0
 21 22  1  0  0  0
 21 24  1  0  0  0
 22 23  2  0  0  0
  9 10  1  0  0  0
  9 12  1  0  0  0
 10 11  1  0  0  0
M  END
> <minimizedAffinity>
-5.13024

$$$$
