CHEMBL1290361


 28 31  0  0  0  0  0  0  0  0999 V2000
  -29.5081   -7.5095   -6.9670 C   0  0  0  0  0  0  0  0  0  0  0  0
  -28.6106   -8.0819   -5.8664 C   0  0  0  0  0  0  0  0  0  0  0  0
  -28.5043   -7.0729   -4.7302 C   0  0  0  0  0  0  0  0  0  0  0  0
  -28.0354   -5.7605   -5.1960 N   0  0  0  0  0  0  0  0  0  0  0  0
  -28.8186   -5.2181   -6.3212 C   0  0  0  0  0  0  0  0  0  0  0  0
  -28.9042   -6.2036   -7.4867 C   0  0  0  0  0  0  0  0  0  0  0  0
  -32.2694   -8.8099   -7.3098 C   0  0  0  0  0  0  0  0  0  0  0  0
  -31.0498   -9.1541   -8.0873 C   0  0  0  0  0  0  0  0  0  0  0  0
  -30.9667  -10.1586   -8.9308 N   0  0  0  0  0  0  0  0  0  0  0  0
  -29.6806  -10.1465   -9.4028 C   0  0  0  0  0  0  0  0  0  0  0  0
  -29.0528  -11.0354  -10.2868 C   0  0  0  0  0  0  0  0  0  0  0  0
  -27.7105  -10.8223  -10.6209 C   0  0  0  0  0  0  0  0  0  0  0  0
  -27.0124   -9.7318  -10.1033 C   0  0  0  0  0  0  0  0  0  0  0  0
  -27.6208   -8.8382   -9.2155 C   0  0  0  0  0  0  0  0  0  0  0  0
  -28.9567   -9.0844   -8.8664 C   0  0  0  0  0  0  0  0  0  0  0  0
  -29.8355   -8.4957   -7.9827 N   0  0  0  0  0  0  0  0  0  0  0  0
  -27.9674   -4.7893   -4.0755 C   0  0  0  0  0  0  0  0  0  0  0  0
  -28.4886   -3.4029   -4.4747 C   0  0  0  0  0  0  0  0  0  0  0  0
  -29.6251   -3.0309   -4.1801 O   0  0  0  0  0  0  0  0  0  0  0  0
  -27.5600   -2.6228   -5.1463 N   0  0  0  0  0  0  0  0  0  0  0  0
  -26.9127   -3.1205   -5.7483 H   0  0  0  0  0  0  0  0  0  0  0  0
  -27.8530   -1.2915   -5.5169 C   0  0  0  0  0  0  0  0  0  0  0  0
  -27.9659   -0.2919   -4.5414 C   0  0  0  0  0  0  0  0  0  0  0  0
  -28.3254    1.0069   -4.9030 C   0  0  0  0  0  0  0  0  0  0  0  0
  -28.5874    1.3089   -6.2375 C   0  0  0  0  0  0  0  0  0  0  0  0
  -28.4424    0.3269   -7.2196 C   0  0  0  0  0  0  0  0  0  0  0  0
  -28.0463   -0.9636   -6.8631 C   0  0  0  0  0  0  0  0  0  0  0  0
  -27.8916   -2.2744   -8.2292 Br  0  0  0  0  0  0  0  0  0  0  0  0
  7  8  1  0  0  0
  8  9  2  0  0  0
  8 16  1  0  0  0
  9 10  1  0  0  0
 10 11  1  0  0  0
 10 15  2  0  0  0
 11 12  2  0  0  0
 12 13  1  0  0  0
 13 14  2  0  0  0
 14 15  1  0  0  0
 15 16  1  0  0  0
 16  1  1  0  0  0
  1  2  1  0  0  0
  1  6  1  0  0  0
  2  3  1  0  0  0
  3  4  1  0  0  0
  4 17  1  0  0  0
  4  5  1  0  0  0
 17 18  1  0  0  0
 18 19  2  0  0  0
 18 20  1  0  0  0
 20 22  1  0  0  0
 20 21  1  0  0  0
 22 23  1  0  0  0
 22 27  2  0  0  0
 23 24  2  0  0  0
 24 25  1  0  0  0
 25 26  2  0  0  0
 26 27  1  0  0  0
 27 28  1  0  0  0
  5  6  1  0  0  0
M  END
> <minimizedAffinity>
-9.20714

$$$$
