CHEMBL3902434


 39 42  0  0  0  0  0  0  0  0999 V2000
  -28.0113   -1.8544   -9.0131 N   0  0  0  0  0  0  0  0  0  0  0  0
  -28.5238   -3.1023   -8.4472 C   0  0  0  0  0  0  0  0  0  0  0  0
  -27.5591   -4.0926   -8.3079 C   0  0  0  0  0  0  0  0  0  0  0  0
  -27.8724   -5.2012   -7.8225 C   0  0  0  0  0  0  0  0  0  0  0  0
  -29.0836   -5.4519   -7.4812 C   0  0  0  0  0  0  0  0  0  0  0  0
  -29.0707   -6.5357   -7.2580 N   0  0  0  0  0  0  0  0  0  0  0  0
  -29.0119   -7.6370   -7.0477 C   0  0  0  0  0  0  0  0  0  0  0  0
  -30.1624   -7.9766   -6.5925 C   0  0  0  0  0  0  0  0  0  0  0  0
  -31.1037   -6.4429   -6.7871 N   0  0  0  0  0  0  0  0  0  0  0  0
  -30.2970   -5.0238   -7.4158 C   0  0  0  0  0  0  0  0  0  0  0  0
  -29.9796   -3.5056   -8.0831 C   0  0  0  0  0  0  0  0  0  0  0  0
  -29.6413   -9.8725   -6.1489 C   0  0  0  0  0  0  0  0  0  0  0  0
  -29.5986  -11.2254   -6.9674 C   0  0  0  0  0  0  0  0  0  0  0  0
  -28.8748  -12.2090   -6.2801 N   0  0  0  0  0  0  0  0  0  0  0  0
  -28.4847  -11.7147   -5.1120 N   0  0  0  0  0  0  0  0  0  0  0  0
  -27.5336  -12.4651   -4.1595 C   0  0  0  0  0  0  0  0  0  0  0  0
  -28.9806  -10.3922   -4.9859 C   0  0  0  0  0  0  0  0  0  0  0  0
  -27.2854   -1.8386  -12.6848 C   0  0  0  0  0  0  0  0  0  0  0  0
  -25.9638   -1.4223  -12.5989 C   0  0  0  0  0  0  0  0  0  0  0  0
  -25.2791   -1.3233  -11.3699 C   0  0  0  0  0  0  0  0  0  0  0  0
  -25.9556   -1.6068  -10.2389 C   0  0  0  0  0  0  0  0  0  0  0  0
  -27.2910   -1.7832  -10.2339 C   0  0  0  0  0  0  0  0  0  0  0  0
  -27.8652   -1.9711  -11.4946 C   0  0  0  0  0  0  0  0  0  0  0  0
  -27.9084   -1.5574  -15.0863 C   0  0  0  0  0  0  0  0  0  0  0  0
  -28.0527   -2.1174  -13.8160 O   0  0  0  0  0  0  0  0  0  0  0  0
  -23.9672   -1.0193  -11.2870 O   0  0  0  0  0  0  0  0  0  0  0  0
  -23.3911   -0.1507  -12.1807 C   0  0  0  0  0  0  0  0  0  0  0  0
  -28.1906   -0.6400   -8.2344 C   0  0  0  0  0  0  0  0  0  0  0  0
  -27.8768   -0.8043   -6.7687 C   0  0  0  0  0  0  0  0  0  0  0  0
  -28.9244   -1.1460   -5.7987 N   0  0  0  0  0  0  0  0  0  0  0  0
  -29.2005    0.0949   -4.9920 C   0  0  0  0  0  0  0  0  0  0  0  0
  -27.9715    1.0215   -4.8585 C   0  0  0  0  0  0  0  0  0  0  0  0
  -30.3136    0.8796   -5.6546 C   0  0  0  0  0  0  0  0  0  0  0  0
  -28.4260   -2.2139   -4.9519 C   0  0  0  0  0  0  0  0  0  0  0  0
  -29.5343   -2.9894   -4.3218 C   0  0  0  0  0  0  0  0  0  0  0  0
  -29.1796   -4.3247   -3.8546 C   0  0  0  0  0  0  0  0  0  0  0  0
  -30.4025   -5.0226   -3.4687 N   0  0  0  0  0  0  0  0  0  0  0  0
  -30.8972   -4.4724   -2.7280 H   0  0  0  0  0  0  0  0  0  0  0  0
  -30.1173   -5.9416   -3.0799 H   0  0  0  0  0  0  0  0  0  0  0  0
 24 25  1  0  0  0
 25 18  1  0  0  0
 18 19  1  0  0  0
 18 23  2  0  0  0
 19 20  2  0  0  0
 20 26  1  0  0  0
 20 21  1  0  0  0
 26 27  1  0  0  0
 21 22  2  0  0  0
 22  1  1  0  0  0
 22 23  1  0  0  0
  1 28  1  0  0  0
  1  2  1  0  0  0
 28 29  1  0  0  0
 29 30  1  0  0  0
 30 34  1  0  0  0
 30 31  1  0  0  0
 34 35  1  0  0  0
 35 36  1  0  0  0
 36 37  1  0  0  0
 37 38  1  0  0  0
 37 39  1  0  0  0
 31 32  1  0  0  0
 31 33  1  0  0  0
  2  3  1  0  0  0
  2 11  2  0  0  0
  3  4  2  0  0  0
  4  5  1  0  0  0
  5  6  1  0  0  0
  5 10  2  0  0  0
  6  7  2  0  0  0
  7  8  1  0  0  0
  8 12  1  0  0  0
  8  9  2  0  0  0
 12 13  1  0  0  0
 12 17  2  0  0  0
 13 14  2  0  0  0
 14 15  1  0  0  0
 15 16  1  0  0  0
 15 17  1  0  0  0
  9 10  1  0  0  0
 10 11  1  0  0  0
M  END
> <minimizedAffinity>
-6.27461

$$$$
