CHEMBL4635284


 54 59  0  0  0  0  0  0  0  0999 V2000
  -13.4684   -0.2792  -14.9690 C   0  0  0  0  0  0  0  0  0  0  0  0
  -14.4614    0.5388  -15.3501 N   0  0  0  0  0  0  0  0  0  0  0  0
  -15.6998    0.3486  -14.8837 C   0  0  0  0  0  0  0  0  0  0  0  0
  -16.0299   -0.6510  -14.0777 N   0  0  0  0  0  0  0  0  0  0  0  0
  -15.0126   -1.4387  -13.6785 C   0  0  0  0  0  0  0  0  0  0  0  0
  -13.6790   -1.3274  -14.0758 C   0  0  0  0  0  0  0  0  0  0  0  0
  -12.6548   -2.2289  -13.5033 C   0  0  0  0  0  0  0  0  0  0  0  0
  -12.1569   -3.3131  -14.2552 C   0  0  0  0  0  0  0  0  0  0  0  0
  -11.2253   -4.2136  -13.7334 C   0  0  0  0  0  0  0  0  0  0  0  0
  -10.7603   -4.0398  -12.4299 C   0  0  0  0  0  0  0  0  0  0  0  0
  -11.2242   -2.9776  -11.6565 C   0  0  0  0  0  0  0  0  0  0  0  0
  -12.1756   -2.0975  -12.1904 C   0  0  0  0  0  0  0  0  0  0  0  0
  -10.6997   -5.2853  -14.4054 O   0  0  0  0  0  0  0  0  0  0  0  0
  -11.5635   -5.9585  -15.3167 C   0  0  0  0  0  0  0  0  0  0  0  0
  -10.8376   -2.6856  -10.3764 O   0  0  0  0  0  0  0  0  0  0  0  0
  -10.9699   -3.7187   -9.4086 C   0  0  0  0  0  0  0  0  0  0  0  0
  -12.1999   -0.0020  -15.5479 N   0  0  0  0  0  0  0  0  0  0  0  0
  -11.4661   -0.4835  -15.0194 H   0  0  0  0  0  0  0  0  0  0  0  0
  -11.9331    1.2494  -17.7002 C   0  0  0  0  0  0  0  0  0  0  0  0
  -11.8524    1.2109  -19.1124 C   0  0  0  0  0  0  0  0  0  0  0  0
  -11.7199    0.0019  -19.7848 C   0  0  0  0  0  0  0  0  0  0  0  0
  -11.6938   -1.1802  -19.0584 C   0  0  0  0  0  0  0  0  0  0  0  0
  -11.8515   -1.1416  -17.6693 C   0  0  0  0  0  0  0  0  0  0  0  0
  -11.9653    0.0649  -16.9478 C   0  0  0  0  0  0  0  0  0  0  0  0
  -11.9322    2.8582  -16.9655 S   0  0  0  0  0  0  0  0  0  0  0  0
  -11.6219    3.8352  -17.9816 O   0  0  0  0  0  0  0  0  0  0  0  0
  -11.1580    2.7569  -15.7419 O   0  0  0  0  0  0  0  0  0  0  0  0
  -13.5664    3.0615  -16.5021 N   0  0  0  0  0  0  0  0  0  0  0  0
  -13.8497    2.3116  -15.8653 H   0  0  0  0  0  0  0  0  0  0  0  0
  -15.6478    4.1922  -17.0980 C   0  0  0  0  0  0  0  0  0  0  0  0
  -14.5379    3.2766  -17.5903 C   0  0  0  0  0  0  0  0  0  0  0  0
  -16.7005    1.2141  -15.2800 N   0  0  0  0  0  0  0  0  0  0  0  0
  -16.3914    1.8606  -15.9902 H   0  0  0  0  0  0  0  0  0  0  0  0
  -18.0752    1.0793  -15.0736 C   0  0  0  0  0  0  0  0  0  0  0  0
  -18.7754   -0.0931  -15.3485 C   0  0  0  0  0  0  0  0  0  0  0  0
  -20.1399   -0.2000  -15.0523 C   0  0  0  0  0  0  0  0  0  0  0  0
  -20.8531    0.8537  -14.4558 C   0  0  0  0  0  0  0  0  0  0  0  0
  -20.1419    2.0573  -14.2222 C   0  0  0  0  0  0  0  0  0  0  0  0
  -18.7729    2.1474  -14.5230 C   0  0  0  0  0  0  0  0  0  0  0  0
  -22.1868    0.5972  -14.0734 N   0  0  0  0  0  0  0  0  0  0  0  0
  -22.9830   -0.2286  -14.9827 C   0  0  0  0  0  0  0  0  0  0  0  0
  -24.4488    0.0776  -14.7208 C   0  0  0  0  0  0  0  0  0  0  0  0
  -24.8885   -0.2820  -13.2826 C   0  0  0  0  0  0  0  0  0  0  0  0
  -23.8639    0.3461  -12.2890 C   0  0  0  0  0  0  0  0  0  0  0  0
  -22.3786    0.1989  -12.6693 C   0  0  0  0  0  0  0  0  0  0  0  0
  -25.1339   -1.7259  -12.9934 N   0  0  0  0  0  0  0  0  0  0  0  0
  -26.5355   -2.1776  -13.1562 C   0  0  0  0  0  0  0  0  0  0  0  0
  -27.5340   -1.5758  -12.1399 C   0  0  0  0  0  0  0  0  0  0  0  0
  -27.1756   -1.8366  -10.7371 N   0  0  0  0  0  0  0  0  0  0  0  0
  -28.0099   -1.0260   -9.8446 C   0  0  0  0  0  0  0  0  0  0  0  0
  -25.7439   -1.5896  -10.4792 C   0  0  0  0  0  0  0  0  0  0  0  0
  -24.7665   -2.0804  -11.5903 C   0  0  0  0  0  0  0  0  0  0  0  0
  -20.8136    3.1168  -13.6592 O   0  0  0  0  0  0  0  0  0  0  0  0
  -21.9791    3.5573  -14.3444 C   0  0  0  0  0  0  0  0  0  0  0  0
 30 31  1  0  0  0
 31 28  1  0  0  0
 28 25  1  0  0  0
 28 29  1  0  0  0
 25 26  2  0  0  0
 25 27  2  0  0  0
 25 19  1  0  0  0
 19 20  1  0  0  0
 19 24  2  0  0  0
 20 21  2  0  0  0
 21 22  1  0  0  0
 22 23  2  0  0  0
 23 24  1  0  0  0
 24 17  1  0  0  0
 17  1  1  0  0  0
 17 18  1  0  0  0
  1  2  1  0  0  0
  1  6  2  0  0  0
  2  3  2  0  0  0
  3 32  1  0  0  0
  3  4  1  0  0  0
 32 34  1  0  0  0
 32 33  1  0  0  0
 34 35  1  0  0  0
 34 39  2  0  0  0
 35 36  2  0  0  0
 36 37  1  0  0  0
 37 40  1  0  0  0
 37 38  2  0  0  0
 40 41  1  0  0  0
 40 45  1  0  0  0
 41 42  1  0  0  0
 42 43  1  0  0  0
 43 46  1  0  0  0
 43 44  1  0  0  0
 46 47  1  0  0  0
 46 52  1  0  0  0
 47 48  1  0  0  0
 48 49  1  0  0  0
 49 50  1  0  0  0
 49 51  1  0  0  0
 51 52  1  0  0  0
 44 45  1  0  0  0
 38 53  1  0  0  0
 38 39  1  0  0  0
 53 54  1  0  0  0
  4  5  2  0  0  0
  5  6  1  0  0  0
  6  7  1  0  0  0
  7  8  1  0  0  0
  7 12  2  0  0  0
  8  9  2  0  0  0
  9 13  1  0  0  0
  9 10  1  0  0  0
 13 14  1  0  0  0
 10 11  2  0  0  0
 11 15  1  0  0  0
 11 12  1  0  0  0
 15 16  1  0  0  0
M  END
> <minimizedAffinity>
-5.26873

$$$$
