CHEMBL3287223


 21 23  0  0  0  0  0  0  0  0999 V2000
  -14.1846    0.8285  -14.9090 C   0  0  0  0  0  0  0  0  0  0  0  0
  -13.6843    1.8453  -14.1429 N   0  0  0  0  0  0  0  0  0  0  0  0
  -12.7666    1.6261  -13.1467 C   0  0  0  0  0  0  0  0  0  0  0  0
  -12.2387    2.7694  -12.3469 C   0  0  0  0  0  0  0  0  0  0  0  0
  -12.3263    0.3641  -12.8779 N   0  0  0  0  0  0  0  0  0  0  0  0
  -12.8302   -0.6609  -13.6000 C   0  0  0  0  0  0  0  0  0  0  0  0
  -12.5630   -2.0053  -13.4878 C   0  0  0  0  0  0  0  0  0  0  0  0
  -13.3762   -2.6106  -14.4337 C   0  0  0  0  0  0  0  0  0  0  0  0
  -14.1072   -1.6837  -15.0923 N   0  0  0  0  0  0  0  0  0  0  0  0
  -13.7474   -0.4790  -14.5920 C   0  0  0  0  0  0  0  0  0  0  0  0
  -14.8094   -1.9117  -15.8260 H   0  0  0  0  0  0  0  0  0  0  0  0
  -15.1282    1.1216  -15.9576 N   0  0  0  0  0  0  0  0  0  0  0  0
  -14.6654    1.0427  -17.3354 C   0  0  0  0  0  0  0  0  0  0  0  0
  -19.1654    2.2824  -15.3345 C   0  0  0  0  0  0  0  0  0  0  0  0
  -18.2355    3.2028  -15.8195 C   0  0  0  0  0  0  0  0  0  0  0  0
  -16.8999    2.8368  -15.9713 C   0  0  0  0  0  0  0  0  0  0  0  0
  -16.4640    1.5364  -15.6388 C   0  0  0  0  0  0  0  0  0  0  0  0
  -17.3831    0.6457  -15.0550 C   0  0  0  0  0  0  0  0  0  0  0  0
  -18.7221    1.0121  -14.9164 C   0  0  0  0  0  0  0  0  0  0  0  0
  -21.1617    3.0821  -14.2229 C   0  0  0  0  0  0  0  0  0  0  0  0
  -20.4731    2.6347  -15.3321 O   0  0  0  0  0  0  0  0  0  0  0  0
 20 21  1  0  0  0
 21 14  1  0  0  0
 14 15  1  0  0  0
 14 19  2  0  0  0
 15 16  2  0  0  0
 16 17  1  0  0  0
 17 12  1  0  0  0
 17 18  2  0  0  0
 12 13  1  0  0  0
 12  1  1  0  0  0
  1  2  1  0  0  0
  1 10  2  0  0  0
  2  3  2  0  0  0
  3  4  1  0  0  0
  3  5  1  0  0  0
  5  6  2  0  0  0
  6  7  1  0  0  0
  6 10  1  0  0  0
  7  8  2  0  0  0
  8  9  1  0  0  0
  9 10  1  0  0  0
  9 11  1  0  0  0
 18 19  1  0  0  0
M  END
> <minimizedAffinity>
-6.36979

$$$$
