CHEMBL2000271


 31 34  0  0  0  0  0  0  0  0999 V2000
  -29.8780   -3.8040   -4.1888 C   0  0  0  0  0  0  0  0  0  0  0  0
  -31.1535   -3.8228   -3.6194 C   0  0  0  0  0  0  0  0  0  0  0  0
  -31.7941   -4.9311   -3.1719 N   0  0  0  0  0  0  0  0  0  0  0  0
  -31.1167   -6.0974   -3.2684 C   0  0  0  0  0  0  0  0  0  0  0  0
  -29.8355   -6.2089   -3.7852 C   0  0  0  0  0  0  0  0  0  0  0  0
  -29.2372   -5.0510   -4.2785 C   0  0  0  0  0  0  0  0  0  0  0  0
  -31.2119    1.4246   -6.2535 C   0  0  0  0  0  0  0  0  0  0  0  0
  -29.8144    0.9684   -6.0574 C   0  0  0  0  0  0  0  0  0  0  0  0
  -28.7861    1.7721   -6.3567 N   0  0  0  0  0  0  0  0  0  0  0  0
  -27.7037    1.0336   -6.0486 N   0  0  0  0  0  0  0  0  0  0  0  0
  -27.9926   -0.2085   -5.5528 C   0  0  0  0  0  0  0  0  0  0  0  0
  -27.1787   -1.2517   -5.1116 C   0  0  0  0  0  0  0  0  0  0  0  0
  -27.8208   -2.4140   -4.6544 C   0  0  0  0  0  0  0  0  0  0  0  0
  -29.2216   -2.5578   -4.6491 C   0  0  0  0  0  0  0  0  0  0  0  0
  -29.9948   -1.4692   -5.1122 C   0  0  0  0  0  0  0  0  0  0  0  0
  -29.3765   -0.2859   -5.5569 C   0  0  0  0  0  0  0  0  0  0  0  0
  -26.7880    1.4411   -6.1992 H   0  0  0  0  0  0  0  0  0  0  0  0
  -29.2698   -7.4508   -3.8037 O   0  0  0  0  0  0  0  0  0  0  0  0
  -29.5942   -8.2543   -4.9500 C   0  0  0  0  0  0  0  0  0  0  0  0
  -28.4577   -8.1429   -5.9790 C   0  0  0  0  0  0  0  0  0  0  0  0
  -27.6370   -9.4511   -6.0642 C   0  0  0  0  0  0  0  0  0  0  0  0
  -26.8520   -9.5814   -7.2926 N   0  0  0  0  0  0  0  0  0  0  0  0
  -27.4806   -9.6543   -8.0926 H   0  0  0  0  0  0  0  0  0  0  0  0
  -26.3543  -10.4731   -7.2694 H   0  0  0  0  0  0  0  0  0  0  0  0
  -28.9893   -7.7347   -7.3712 C   0  0  0  0  0  0  0  0  0  0  0  0
  -29.1028   -6.2429   -7.6096 C   0  0  0  0  0  0  0  0  0  0  0  0
  -27.9913   -5.4780   -7.9860 C   0  0  0  0  0  0  0  0  0  0  0  0
  -28.1192   -4.1067   -8.2207 C   0  0  0  0  0  0  0  0  0  0  0  0
  -29.3612   -3.4877   -8.0930 C   0  0  0  0  0  0  0  0  0  0  0  0
  -30.4763   -4.2368   -7.7324 C   0  0  0  0  0  0  0  0  0  0  0  0
  -30.3500   -5.6073   -7.4916 C   0  0  0  0  0  0  0  0  0  0  0  0
  7  8  1  0  0  0
  8  9  2  0  0  0
  8 16  1  0  0  0
  9 10  1  0  0  0
 10 11  1  0  0  0
 10 17  1  0  0  0
 11 12  1  0  0  0
 11 16  2  0  0  0
 12 13  2  0  0  0
 13 14  1  0  0  0
 14  1  1  0  0  0
 14 15  2  0  0  0
  1  2  1  0  0  0
  1  6  2  0  0  0
  2  3  2  0  0  0
  3  4  1  0  0  0
  4  5  2  0  0  0
  5 18  1  0  0  0
  5  6  1  0  0  0
 18 19  1  0  0  0
 19 20  1  0  0  0
 20 21  1  0  0  0
 20 25  1  0  0  0
 21 22  1  0  0  0
 22 23  1  0  0  0
 22 24  1  0  0  0
 25 26  1  0  0  0
 26 27  1  0  0  0
 26 31  2  0  0  0
 27 28  2  0  0  0
 28 29  1  0  0  0
 29 30  2  0  0  0
 30 31  1  0  0  0
 15 16  1  0  0  0
M  END
> <minimizedAffinity>
-8.11478

$$$$
