CHEMBL279459


 32 35  0  0  0  0  0  0  0  0999 V2000
  -14.0312   -0.0165  -14.1288 C   0  0  0  0  0  0  0  0  0  0  0  0
  -14.3133    0.9970  -15.0383 C   0  0  0  0  0  0  0  0  0  0  0  0
  -15.5912    1.5562  -15.1423 C   0  0  0  0  0  0  0  0  0  0  0  0
  -15.9240    2.4872  -16.1376 C   0  0  0  0  0  0  0  0  0  0  0  0
  -17.1378    3.0540  -16.2012 N   0  0  0  0  0  0  0  0  0  0  0  0
  -18.0107    2.6681  -15.2660 C   0  0  0  0  0  0  0  0  0  0  0  0
  -17.8062    1.7564  -14.2977 N   0  0  0  0  0  0  0  0  0  0  0  0
  -16.5859    1.2010  -14.2302 C   0  0  0  0  0  0  0  0  0  0  0  0
  -16.2706    0.2505  -13.2514 C   0  0  0  0  0  0  0  0  0  0  0  0
  -15.0060   -0.3717  -13.1722 C   0  0  0  0  0  0  0  0  0  0  0  0
  -11.7062    0.1163  -13.5657 C   0  0  0  0  0  0  0  0  0  0  0  0
  -12.7942   -0.6000  -14.1480 O   0  0  0  0  0  0  0  0  0  0  0  0
  -14.9706    2.7602  -17.1614 N   0  0  0  0  0  0  0  0  0  0  0  0
  -15.2598    2.2813  -18.0132 H   0  0  0  0  0  0  0  0  0  0  0  0
  -14.4531    4.0426  -17.4485 C   0  0  0  0  0  0  0  0  0  0  0  0
  -14.9400    4.8202  -18.5072 C   0  0  0  0  0  0  0  0  0  0  0  0
  -15.9788    4.3903  -19.2420 F   0  0  0  0  0  0  0  0  0  0  0  0
  -14.3975    6.0670  -18.8065 C   0  0  0  0  0  0  0  0  0  0  0  0
  -13.3567    6.5614  -18.0261 C   0  0  0  0  0  0  0  0  0  0  0  0
  -12.5742    8.2243  -18.4636 Br  0  0  0  0  0  0  0  0  0  0  0  0
  -12.8865    5.8398  -16.9314 C   0  0  0  0  0  0  0  0  0  0  0  0
  -13.4455    4.5960  -16.6500 C   0  0  0  0  0  0  0  0  0  0  0  0
  -12.9941    3.9057  -15.5895 F   0  0  0  0  0  0  0  0  0  0  0  0
  -14.8708   -1.2844  -12.1239 O   0  0  0  0  0  0  0  0  0  0  0  0
  -15.5531   -2.5148  -12.3437 C   0  0  0  0  0  0  0  0  0  0  0  0
  -16.1756   -3.2453  -11.1383 C   0  0  0  0  0  0  0  0  0  0  0  0
  -15.2906   -3.3518   -9.8900 C   0  0  0  0  0  0  0  0  0  0  0  0
  -14.1135   -4.3197  -10.0668 C   0  0  0  0  0  0  0  0  0  0  0  0
  -14.5258   -5.6392  -10.5413 N   0  0  0  0  0  0  0  0  0  0  0  0
  -15.2777   -5.5463  -11.7904 C   0  0  0  0  0  0  0  0  0  0  0  0
  -16.5298   -4.6774  -11.6139 C   0  0  0  0  0  0  0  0  0  0  0  0
  -15.1149   -6.0787   -9.8351 H   0  0  0  0  0  0  0  0  0  0  0  0
 11 12  1  0  0  0
 12  1  1  0  0  0
  1  2  1  0  0  0
  1 10  2  0  0  0
  2  3  2  0  0  0
  3  4  1  0  0  0
  3  8  1  0  0  0
  4 13  1  0  0  0
  4  5  2  0  0  0
 13 15  1  0  0  0
 13 14  1  0  0  0
 15 16  1  0  0  0
 15 22  2  0  0  0
 16 17  1  0  0  0
 16 18  2  0  0  0
 18 19  1  0  0  0
 19 20  1  0  0  0
 19 21  2  0  0  0
 21 22  1  0  0  0
 22 23  1  0  0  0
  5  6  1  0  0  0
  6  7  2  0  0  0
  7  8  1  0  0  0
  8  9  2  0  0  0
  9 10  1  0  0  0
 10 24  1  0  0  0
 24 25  1  0  0  0
 25 26  1  0  0  0
 26 27  1  0  0  0
 26 31  1  0  0  0
 27 28  1  0  0  0
 28 29  1  0  0  0
 29 30  1  0  0  0
 29 32  1  0  0  0
 30 31  1  0  0  0
M  END
> <minimizedAffinity>
-7.55074

$$$$
