CHEMBL3694691


 38 41  0  0  0  0  0  0  0  0999 V2000
  -16.0824    3.4846  -16.3584 C   0  0  0  0  0  0  0  0  0  0  0  0
  -17.3871    3.4886  -15.8736 C   0  0  0  0  0  0  0  0  0  0  0  0
  -17.8650    2.4423  -15.0825 C   0  0  0  0  0  0  0  0  0  0  0  0
  -16.9941    1.3746  -14.7827 C   0  0  0  0  0  0  0  0  0  0  0  0
  -15.6821    1.3368  -15.2914 C   0  0  0  0  0  0  0  0  0  0  0  0
  -15.2393    2.4130  -16.0776 C   0  0  0  0  0  0  0  0  0  0  0  0
  -14.7234    0.2577  -15.0149 C   0  0  0  0  0  0  0  0  0  0  0  0
  -13.5982   -0.0993  -15.7506 C   0  0  0  0  0  0  0  0  0  0  0  0
  -12.9707   -1.2016  -15.2489 N   0  0  0  0  0  0  0  0  0  0  0  0
  -13.6930   -1.5567  -14.2134 C   0  0  0  0  0  0  0  0  0  0  0  0
  -13.5338   -2.6651  -13.3361 C   0  0  0  0  0  0  0  0  0  0  0  0
  -14.4374   -2.9227  -12.3600 C   0  0  0  0  0  0  0  0  0  0  0  0
  -15.5576   -1.9854  -12.1764 C   0  0  0  0  0  0  0  0  0  0  0  0
  -15.7163   -0.9399  -13.0055 C   0  0  0  0  0  0  0  0  0  0  0  0
  -14.7877   -0.7152  -14.0217 N   0  0  0  0  0  0  0  0  0  0  0  0
  -14.2877   -4.1389  -11.5132 C   0  0  0  0  0  0  0  0  0  0  0  0
  -14.1658   -4.0650  -10.1384 C   0  0  0  0  0  0  0  0  0  0  0  0
  -13.9730   -5.2509   -9.4752 C   0  0  0  0  0  0  0  0  0  0  0  0
  -13.8931   -6.4389  -10.0940 N   0  0  0  0  0  0  0  0  0  0  0  0
  -14.0070   -6.4417  -11.4441 C   0  0  0  0  0  0  0  0  0  0  0  0
  -14.2010   -5.3136  -12.1758 N   0  0  0  0  0  0  0  0  0  0  0  0
  -13.8951   -7.7807  -12.1854 C   0  0  0  0  0  0  0  0  0  0  0  0
  -13.7618   -8.8637  -11.3606 F   0  0  0  0  0  0  0  0  0  0  0  0
  -14.9838   -8.0540  -12.9663 F   0  0  0  0  0  0  0  0  0  0  0  0
  -12.8176   -7.8361  -13.0270 F   0  0  0  0  0  0  0  0  0  0  0  0
  -19.1993    2.4104  -14.5850 N   0  0  0  0  0  0  0  0  0  0  0  0
  -20.1109    1.4012  -14.7900 C   0  0  0  0  0  0  0  0  0  0  0  0
  -19.9585    0.4044  -15.4787 O   0  0  0  0  0  0  0  0  0  0  0  0
  -21.2691    1.5639  -14.0639 N   0  0  0  0  0  0  0  0  0  0  0  0
  -19.4941    3.1910  -14.0204 H   0  0  0  0  0  0  0  0  0  0  0  0
  -21.5606    2.5044  -13.8455 H   0  0  0  0  0  0  0  0  0  0  0  0
  -22.3273    0.5475  -14.2216 C   0  0  0  0  0  0  0  0  0  0  0  0
  -22.7724   -0.1808  -12.9431 C   0  0  0  0  0  0  0  0  0  0  0  0
  -21.9308    0.0447  -11.9083 F   0  0  0  0  0  0  0  0  0  0  0  0
  -24.0177    0.1659  -12.5592 F   0  0  0  0  0  0  0  0  0  0  0  0
  -22.7766   -1.5209  -13.1578 F   0  0  0  0  0  0  0  0  0  0  0  0
  -15.2043    5.4691  -17.7695 N   0  0  0  0  0  0  0  0  0  0  0  0
  -15.6089    4.5799  -17.1408 C   0  0  0  0  0  0  0  0  0  0  0  0
 37 38  3  0  0  0
 38  1  1  0  0  0
  1  2  1  0  0  0
  1  6  2  0  0  0
  2  3  2  0  0  0
  3 26  1  0  0  0
  3  4  1  0  0  0
 26 27  1  0  0  0
 26 30  1  0  0  0
 27 28  2  0  0  0
 27 29  1  0  0  0
 29 32  1  0  0  0
 29 31  1  0  0  0
 32 33  1  0  0  0
 33 34  1  0  0  0
 33 35  1  0  0  0
 33 36  1  0  0  0
  4  5  2  0  0  0
  5  7  1  0  0  0
  5  6  1  0  0  0
  7  8  2  0  0  0
  7 15  1  0  0  0
  8  9  1  0  0  0
  9 10  2  0  0  0
 10 11  1  0  0  0
 10 15  1  0  0  0
 11 12  2  0  0  0
 12 16  1  0  0  0
 12 13  1  0  0  0
 16 17  1  0  0  0
 16 21  2  0  0  0
 17 18  2  0  0  0
 18 19  1  0  0  0
 19 20  2  0  0  0
 20 22  1  0  0  0
 20 21  1  0  0  0
 22 23  1  0  0  0
 22 24  1  0  0  0
 22 25  1  0  0  0
 13 14  2  0  0  0
 14 15  1  0  0  0
M  END
> <minimizedAffinity>
-9.50140

$$$$
