CHEMBL594228


 41 46  0  0  0  0  0  0  0  0999 V2000
  -28.2268   -9.9024   -4.3563 C   0  0  0  0  0  0  0  0  0  0  0  0
  -28.7907   -9.8689   -5.6270 C   0  0  0  0  0  0  0  0  0  0  0  0
  -28.3555  -10.7247   -6.6547 C   0  0  0  0  0  0  0  0  0  0  0  0
  -28.8882  -10.7009   -7.9493 C   0  0  0  0  0  0  0  0  0  0  0  0
  -28.4588  -11.5443   -8.9036 N   0  0  0  0  0  0  0  0  0  0  0  0
  -27.4885  -12.3960   -8.5614 C   0  0  0  0  0  0  0  0  0  0  0  0
  -26.8789  -12.4649   -7.3725 N   0  0  0  0  0  0  0  0  0  0  0  0
  -27.3082  -11.6207   -6.4259 C   0  0  0  0  0  0  0  0  0  0  0  0
  -26.6909  -11.5961   -5.1787 C   0  0  0  0  0  0  0  0  0  0  0  0
  -27.1329  -10.7599   -4.1375 C   0  0  0  0  0  0  0  0  0  0  0  0
  -29.1984   -7.7960   -3.6388 C   0  0  0  0  0  0  0  0  0  0  0  0
  -28.6485   -9.0782   -3.3567 O   0  0  0  0  0  0  0  0  0  0  0  0
  -29.8747   -9.7308   -8.2819 N   0  0  0  0  0  0  0  0  0  0  0  0
  -30.3030   -9.9317   -9.1810 H   0  0  0  0  0  0  0  0  0  0  0  0
  -29.7339   -8.3468   -8.0487 C   0  0  0  0  0  0  0  0  0  0  0  0
  -30.7433   -7.6374   -7.3966 C   0  0  0  0  0  0  0  0  0  0  0  0
  -30.5652   -6.3009   -7.0553 C   0  0  0  0  0  0  0  0  0  0  0  0
  -29.3699   -5.6303   -7.3592 C   0  0  0  0  0  0  0  0  0  0  0  0
  -28.4013   -6.3052   -8.1148 C   0  0  0  0  0  0  0  0  0  0  0  0
  -28.5933   -7.6461   -8.4555 C   0  0  0  0  0  0  0  0  0  0  0  0
  -27.6396   -8.2891   -9.1492 F   0  0  0  0  0  0  0  0  0  0  0  0
  -29.1318   -4.2629   -6.8740 C   0  0  0  0  0  0  0  0  0  0  0  0
  -28.4258   -3.3413   -7.4959 N   0  0  0  0  0  0  0  0  0  0  0  0
  -28.4533   -2.1573   -6.7732 C   0  0  0  0  0  0  0  0  0  0  0  0
  -27.8587   -0.9352   -7.1495 C   0  0  0  0  0  0  0  0  0  0  0  0
  -27.9912    0.1857   -6.3228 C   0  0  0  0  0  0  0  0  0  0  0  0
  -28.6981    0.1083   -5.1271 C   0  0  0  0  0  0  0  0  0  0  0  0
  -29.2843   -1.0935   -4.7228 C   0  0  0  0  0  0  0  0  0  0  0  0
  -29.1476   -2.2068   -5.5661 C   0  0  0  0  0  0  0  0  0  0  0  0
  -29.7540   -3.7881   -5.3351 S   0  0  0  0  0  0  0  0  0  0  0  0
  -26.3700  -10.8513   -2.9893 O   0  0  0  0  0  0  0  0  0  0  0  0
  -25.4990  -11.9820   -2.9411 C   0  0  0  0  0  0  0  0  0  0  0  0
  -24.2031  -11.6606   -2.1981 C   0  0  0  0  0  0  0  0  0  0  0  0
  -23.3289  -10.7243   -3.0518 C   0  0  0  0  0  0  0  0  0  0  0  0
  -23.1347  -11.2184   -4.4228 N   0  0  0  0  0  0  0  0  0  0  0  0
  -23.4772  -10.2053   -5.4366 C   0  0  0  0  0  0  0  0  0  0  0  0
  -23.2631  -10.7288   -6.8719 C   0  0  0  0  0  0  0  0  0  0  0  0
  -21.8973  -11.2098   -7.1484 N   0  0  0  0  0  0  0  0  0  0  0  0
  -20.9488  -10.1014   -7.2283 C   0  0  0  0  0  0  0  0  0  0  0  0
  -21.5152  -12.1812   -6.1028 C   0  0  0  0  0  0  0  0  0  0  0  0
  -21.7646  -11.7202   -4.6414 C   0  0  0  0  0  0  0  0  0  0  0  0
 11 12  1  0  0  0
 12  1  1  0  0  0
  1  2  1  0  0  0
  1 10  2  0  0  0
  2  3  2  0  0  0
  3  4  1  0  0  0
  3  8  1  0  0  0
  4 13  1  0  0  0
  4  5  2  0  0  0
 13 15  1  0  0  0
 13 14  1  0  0  0
 15 16  1  0  0  0
 15 20  2  0  0  0
 16 17  2  0  0  0
 17 18  1  0  0  0
 18 22  1  0  0  0
 18 19  2  0  0  0
 22 23  2  0  0  0
 22 30  1  0  0  0
 23 24  1  0  0  0
 24 25  1  0  0  0
 24 29  2  0  0  0
 25 26  2  0  0  0
 26 27  1  0  0  0
 27 28  2  0  0  0
 28 29  1  0  0  0
 29 30  1  0  0  0
 19 20  1  0  0  0
 20 21  1  0  0  0
  5  6  1  0  0  0
  6  7  2  0  0  0
  7  8  1  0  0  0
  8  9  2  0  0  0
  9 10  1  0  0  0
 10 31  1  0  0  0
 31 32  1  0  0  0
 32 33  1  0  0  0
 33 34  1  0  0  0
 34 35  1  0  0  0
 35 36  1  0  0  0
 35 41  1  0  0  0
 36 37  1  0  0  0
 37 38  1  0  0  0
 38 39  1  0  0  0
 38 40  1  0  0  0
 40 41  1  0  0  0
M  END
> <minimizedAffinity>
-9.02960

$$$$
