CHEMBL3133758


 43 46  0  0  0  0  0  0  0  0999 V2000
  -17.0023    2.1110  -14.2322 N   0  0  0  0  0  0  0  0  0  0  0  0
  -16.8744    1.9493  -13.2411 H   0  0  0  0  0  0  0  0  0  0  0  0
  -14.0032   -1.8947  -13.3076 C   0  0  0  0  0  0  0  0  0  0  0  0
  -15.0482   -1.3246  -12.5852 C   0  0  0  0  0  0  0  0  0  0  0  0
  -15.7469   -0.2444  -13.1132 C   0  0  0  0  0  0  0  0  0  0  0  0
  -15.4110    0.2758  -14.3784 C   0  0  0  0  0  0  0  0  0  0  0  0
  -16.0077    1.4073  -14.9585 C   0  0  0  0  0  0  0  0  0  0  0  0
  -15.6556    1.8537  -16.1772 N   0  0  0  0  0  0  0  0  0  0  0  0
  -14.7017    1.1756  -16.8169 C   0  0  0  0  0  0  0  0  0  0  0  0
  -14.0426    0.1158  -16.3487 N   0  0  0  0  0  0  0  0  0  0  0  0
  -14.3904   -0.3220  -15.1326 C   0  0  0  0  0  0  0  0  0  0  0  0
  -13.7017   -1.3986  -14.5788 C   0  0  0  0  0  0  0  0  0  0  0  0
  -13.2075   -2.9226  -12.8699 O   0  0  0  0  0  0  0  0  0  0  0  0
  -13.2792   -3.1807  -11.4667 C   0  0  0  0  0  0  0  0  0  0  0  0
  -13.1517   -4.6746  -11.2048 C   0  0  0  0  0  0  0  0  0  0  0  0
  -14.4493   -5.2415  -10.6055 C   0  0  0  0  0  0  0  0  0  0  0  0
  -15.2827   -6.0269  -11.5498 N   0  0  0  0  0  0  0  0  0  0  0  0
  -16.5332   -4.5481  -13.2145 C   0  0  0  0  0  0  0  0  0  0  0  0
  -16.5185   -5.2673  -11.8688 C   0  0  0  0  0  0  0  0  0  0  0  0
  -14.5259   -6.3501  -12.7891 C   0  0  0  0  0  0  0  0  0  0  0  0
  -14.6979   -7.7913  -13.3131 C   0  0  0  0  0  0  0  0  0  0  0  0
  -15.9409   -7.9520  -13.9901 O   0  0  0  0  0  0  0  0  0  0  0  0
  -16.6121   -7.5555  -13.4056 H   0  0  0  0  0  0  0  0  0  0  0  0
  -18.3611    2.2148  -14.5998 C   0  0  0  0  0  0  0  0  0  0  0  0
  -18.8096    3.3584  -15.2683 C   0  0  0  0  0  0  0  0  0  0  0  0
  -20.1564    3.4989  -15.5902 C   0  0  0  0  0  0  0  0  0  0  0  0
  -21.0516    2.4677  -15.3092 C   0  0  0  0  0  0  0  0  0  0  0  0
  -20.6053    1.2649  -14.7561 C   0  0  0  0  0  0  0  0  0  0  0  0
  -19.2655    1.1603  -14.3763 C   0  0  0  0  0  0  0  0  0  0  0  0
  -21.4549    0.1475  -14.5637 N   0  0  0  0  0  0  0  0  0  0  0  0
  -22.6409    0.1949  -13.8536 C   0  0  0  0  0  0  0  0  0  0  0  0
  -23.1457    1.2177  -13.4031 O   0  0  0  0  0  0  0  0  0  0  0  0
  -23.1955   -1.0677  -13.6781 N   0  0  0  0  0  0  0  0  0  0  0  0
  -21.3578   -0.6184  -15.2160 H   0  0  0  0  0  0  0  0  0  0  0  0
  -22.5097   -1.8021  -13.5667 H   0  0  0  0  0  0  0  0  0  0  0  0
  -24.4080   -1.2073  -12.9602 C   0  0  0  0  0  0  0  0  0  0  0  0
  -24.4387   -1.1119  -11.5601 C   0  0  0  0  0  0  0  0  0  0  0  0
  -25.6204   -1.3522  -10.8583 C   0  0  0  0  0  0  0  0  0  0  0  0
  -26.7694   -1.6967  -11.5589 C   0  0  0  0  0  0  0  0  0  0  0  0
  -27.8878   -1.9664  -10.8694 F   0  0  0  0  0  0  0  0  0  0  0  0
  -26.7540   -1.7703  -12.9519 C   0  0  0  0  0  0  0  0  0  0  0  0
  -28.1676   -2.2415  -13.8166 Cl  0  0  0  0  0  0  0  0  0  0  0  0
  -25.5802   -1.4982  -13.6605 C   0  0  0  0  0  0  0  0  0  0  0  0
 18 19  1  0  0  0
 19 17  1  0  0  0
 17 20  1  0  0  0
 17 16  1  0  0  0
 20 21  1  0  0  0
 21 22  1  0  0  0
 22 23  1  0  0  0
 16 15  1  0  0  0
 15 14  1  0  0  0
 14 13  1  0  0  0
 13  3  1  0  0  0
  3  4  1  0  0  0
  3 12  2  0  0  0
  4  5  2  0  0  0
  5  6  1  0  0  0
  6  7  1  0  0  0
  6 11  2  0  0  0
  7  1  1  0  0  0
  7  8  2  0  0  0
  1 24  1  0  0  0
  1  2  1  0  0  0
 24 25  1  0  0  0
 24 29  2  0  0  0
 25 26  2  0  0  0
 26 27  1  0  0  0
 27 28  2  0  0  0
 28 30  1  0  0  0
 28 29  1  0  0  0
 30 31  1  0  0  0
 30 34  1  0  0  0
 31 32  2  0  0  0
 31 33  1  0  0  0
 33 36  1  0  0  0
 33 35  1  0  0  0
 36 37  1  0  0  0
 36 43  2  0  0  0
 37 38  2  0  0  0
 38 39  1  0  0  0
 39 40  1  0  0  0
 39 41  2  0  0  0
 41 42  1  0  0  0
 41 43  1  0  0  0
  8  9  1  0  0  0
  9 10  2  0  0  0
 10 11  1  0  0  0
 11 12  1  0  0  0
M  END
> <minimizedAffinity>
-9.34689

$$$$
