CHEMBL3590222


 36 40  0  0  0  0  0  0  0  0999 V2000
  -27.2903  -10.2456   -4.5880 C   0  0  0  0  0  0  0  0  0  0  0  0
  -27.7328   -9.1928   -3.8379 N   0  0  0  0  0  0  0  0  0  0  0  0
  -28.3059   -8.3809   -4.7134 C   0  0  0  0  0  0  0  0  0  0  0  0
  -28.1417   -8.9254   -5.9631 N   0  0  0  0  0  0  0  0  0  0  0  0
  -28.4469   -8.3878   -7.2635 C   0  0  0  0  0  0  0  0  0  0  0  0
  -27.5155  -10.1189   -5.8989 N   0  0  0  0  0  0  0  0  0  0  0  0
  -28.9789   -7.1377   -4.3823 C   0  0  0  0  0  0  0  0  0  0  0  0
  -30.1074   -7.1147   -3.5814 C   0  0  0  0  0  0  0  0  0  0  0  0
  -30.7821   -5.9726   -3.2991 N   0  0  0  0  0  0  0  0  0  0  0  0
  -30.3191   -4.8330   -3.8597 C   0  0  0  0  0  0  0  0  0  0  0  0
  -31.1458   -3.7395   -3.6574 N   0  0  0  0  0  0  0  0  0  0  0  0
  -29.1743   -4.8504   -4.6771 C   0  0  0  0  0  0  0  0  0  0  0  0
  -28.4908   -6.0084   -4.9402 N   0  0  0  0  0  0  0  0  0  0  0  0
  -31.8390   -3.9559   -2.9479 H   0  0  0  0  0  0  0  0  0  0  0  0
  -30.6495   -2.8630   -3.5073 H   0  0  0  0  0  0  0  0  0  0  0  0
  -28.6408   -3.6397   -5.2078 N   0  0  0  0  0  0  0  0  0  0  0  0
  -28.0193   -2.7113   -4.4266 N   0  0  0  0  0  0  0  0  0  0  0  0
  -27.5113   -1.7689   -5.2045 N   0  0  0  0  0  0  0  0  0  0  0  0
  -27.8118   -2.0808   -6.4969 C   0  0  0  0  0  0  0  0  0  0  0  0
  -27.4892   -1.4097   -7.6856 C   0  0  0  0  0  0  0  0  0  0  0  0
  -27.9259   -1.9467   -8.9017 C   0  0  0  0  0  0  0  0  0  0  0  0
  -28.6792   -3.1199   -8.9325 C   0  0  0  0  0  0  0  0  0  0  0  0
  -29.0132   -3.7975   -7.7545 C   0  0  0  0  0  0  0  0  0  0  0  0
  -28.5489   -3.2599   -6.5437 C   0  0  0  0  0  0  0  0  0  0  0  0
  -22.3765  -11.4887   -4.5802 C   0  0  0  0  0  0  0  0  0  0  0  0
  -21.6344  -11.1634   -3.6482 O   0  0  0  0  0  0  0  0  0  0  0  0
  -23.7534  -11.2904   -4.5334 N   0  0  0  0  0  0  0  0  0  0  0  0
  -24.3129  -10.4691   -3.4638 C   0  0  0  0  0  0  0  0  0  0  0  0
  -25.5917  -11.0867   -2.9021 C   0  0  0  0  0  0  0  0  0  0  0  0
  -26.6063  -11.4430   -4.0023 C   0  0  0  0  0  0  0  0  0  0  0  0
  -25.9208  -12.2961   -5.0779 C   0  0  0  0  0  0  0  0  0  0  0  0
  -24.6730  -11.6147   -5.6229 C   0  0  0  0  0  0  0  0  0  0  0  0
  -21.7740  -12.1547   -5.8282 C   0  0  0  0  0  0  0  0  0  0  0  0
  -21.0038  -10.2772   -7.1704 C   0  0  0  0  0  0  0  0  0  0  0  0
  -21.9975  -11.3446   -7.0502 N   0  0  0  0  0  0  0  0  0  0  0  0
  -21.9764  -12.2033   -8.2322 C   0  0  0  0  0  0  0  0  0  0  0  0
 34 35  1  0  0  0
 35 36  1  0  0  0
 35 33  1  0  0  0
 33 25  1  0  0  0
 25 26  2  0  0  0
 25 27  1  0  0  0
 27 28  1  0  0  0
 27 32  1  0  0  0
 28 29  1  0  0  0
 29 30  1  0  0  0
 30  1  1  0  0  0
 30 31  1  0  0  0
  1  2  1  0  0  0
  1  6  2  0  0  0
  2  3  2  0  0  0
  3  7  1  0  0  0
  3  4  1  0  0  0
  7  8  1  0  0  0
  7 13  2  0  0  0
  8  9  2  0  0  0
  9 10  1  0  0  0
 10 11  1  0  0  0
 10 12  2  0  0  0
 11 14  1  0  0  0
 11 15  1  0  0  0
 12 16  1  0  0  0
 12 13  1  0  0  0
 16 17  1  0  0  0
 16 24  1  0  0  0
 17 18  2  0  0  0
 18 19  1  0  0  0
 19 20  1  0  0  0
 19 24  2  0  0  0
 20 21  2  0  0  0
 21 22  1  0  0  0
 22 23  2  0  0  0
 23 24  1  0  0  0
  4  5  1  0  0  0
  4  6  1  0  0  0
 31 32  1  0  0  0
M  END
> <minimizedAffinity>
-8.64053

$$$$
