CHEMBL1087218


 32 36  0  0  0  0  0  0  0  0999 V2000
  -28.4653   -2.5897   -6.9694 C   0  0  0  0  0  0  0  0  0  0  0  0
  -27.4431   -1.7583   -6.9555 N   0  0  0  0  0  0  0  0  0  0  0  0
  -27.1416   -1.4804   -8.2781 N   0  0  0  0  0  0  0  0  0  0  0  0
  -27.9619   -2.1969   -9.0178 C   0  0  0  0  0  0  0  0  0  0  0  0
  -28.8422   -2.9136   -8.2544 O   0  0  0  0  0  0  0  0  0  0  0  0
  -30.7787   -4.2274   -3.7550 C   0  0  0  0  0  0  0  0  0  0  0  0
  -30.1329   -3.0122   -3.6159 C   0  0  0  0  0  0  0  0  0  0  0  0
  -29.3900   -2.5026   -4.6817 C   0  0  0  0  0  0  0  0  0  0  0  0
  -29.2422   -3.2150   -5.8930 C   0  0  0  0  0  0  0  0  0  0  0  0
  -29.8223   -4.5048   -5.9984 C   0  0  0  0  0  0  0  0  0  0  0  0
  -30.6272   -4.9617   -4.9322 C   0  0  0  0  0  0  0  0  0  0  0  0
  -29.6472   -5.2944   -7.1495 N   0  0  0  0  0  0  0  0  0  0  0  0
  -30.4305   -5.1951   -7.7943 H   0  0  0  0  0  0  0  0  0  0  0  0
  -29.2392   -6.6893   -6.9792 C   0  0  0  0  0  0  0  0  0  0  0  0
  -30.2687   -7.6622   -7.4790 C   0  0  0  0  0  0  0  0  0  0  0  0
  -29.9401   -8.7390   -8.3203 C   0  0  0  0  0  0  0  0  0  0  0  0
  -30.9266   -9.6464   -8.6599 C   0  0  0  0  0  0  0  0  0  0  0  0
  -32.2077   -9.5672   -8.2454 N   0  0  0  0  0  0  0  0  0  0  0  0
  -32.5096   -8.5334   -7.4300 C   0  0  0  0  0  0  0  0  0  0  0  0
  -31.5951   -7.5720   -7.0329 C   0  0  0  0  0  0  0  0  0  0  0  0
  -28.0612   -2.2275  -10.3644 N   0  0  0  0  0  0  0  0  0  0  0  0
  -29.0087   -2.2105  -10.7232 H   0  0  0  0  0  0  0  0  0  0  0  0
  -27.0788   -1.9963  -11.3497 C   0  0  0  0  0  0  0  0  0  0  0  0
  -27.3570   -1.9130  -12.7184 C   0  0  0  0  0  0  0  0  0  0  0  0
  -26.3582   -1.5830  -13.6431 C   0  0  0  0  0  0  0  0  0  0  0  0
  -25.0601   -1.3167  -13.2170 C   0  0  0  0  0  0  0  0  0  0  0  0
  -24.7476   -1.4387  -11.8696 C   0  0  0  0  0  0  0  0  0  0  0  0
  -25.7496   -1.7638  -10.9439 C   0  0  0  0  0  0  0  0  0  0  0  0
  -23.4788   -1.2780  -11.3847 O   0  0  0  0  0  0  0  0  0  0  0  0
  -22.6846   -0.4540  -12.2371 C   0  0  0  0  0  0  0  0  0  0  0  0
  -22.8374   -0.7596  -13.7220 C   0  0  0  0  0  0  0  0  0  0  0  0
  -24.1792   -0.9181  -14.1780 O   0  0  0  0  0  0  0  0  0  0  0  0
  6  7  1  0  0  0
  6 11  2  0  0  0
  7  8  2  0  0  0
  8  9  1  0  0  0
  9  1  1  0  0  0
  9 10  2  0  0  0
  1  2  2  0  0  0
  1  5  1  0  0  0
  2  3  1  0  0  0
  3  4  2  0  0  0
  4 21  1  0  0  0
  4  5  1  0  0  0
 21 23  1  0  0  0
 21 22  1  0  0  0
 23 24  1  0  0  0
 23 28  2  0  0  0
 24 25  2  0  0  0
 25 26  1  0  0  0
 26 27  2  0  0  0
 26 32  1  0  0  0
 27 28  1  0  0  0
 27 29  1  0  0  0
 29 30  1  0  0  0
 30 31  1  0  0  0
 31 32  1  0  0  0
 10 12  1  0  0  0
 10 11  1  0  0  0
 12 14  1  0  0  0
 12 13  1  0  0  0
 14 15  1  0  0  0
 15 16  1  0  0  0
 15 20  2  0  0  0
 16 17  2  0  0  0
 17 18  1  0  0  0
 18 19  2  0  0  0
 19 20  1  0  0  0
M  END
> <minimizedAffinity>
-10.53494

$$$$
