CHEMBL3397920


 37 40  0  0  0  0  0  0  0  0999 V2000
  -29.4818   -4.8957   -7.6084 C   0  0  0  0  0  0  0  0  0  0  0  0
  -30.5457   -4.7815   -8.2071 O   0  0  0  0  0  0  0  0  0  0  0  0
  -28.7591   -6.0749   -7.4483 N   0  0  0  0  0  0  0  0  0  0  0  0
  -28.0294   -6.0883   -6.7457 H   0  0  0  0  0  0  0  0  0  0  0  0
  -28.0348   -1.1701   -6.0731 C   0  0  0  0  0  0  0  0  0  0  0  0
  -27.7870   -1.5611   -7.3832 C   0  0  0  0  0  0  0  0  0  0  0  0
  -28.2116   -2.8145   -7.8219 C   0  0  0  0  0  0  0  0  0  0  0  0
  -28.9031   -3.6876   -6.9560 C   0  0  0  0  0  0  0  0  0  0  0  0
  -29.1524   -3.3483   -5.5965 C   0  0  0  0  0  0  0  0  0  0  0  0
  -28.6694   -2.0732   -5.1896 C   0  0  0  0  0  0  0  0  0  0  0  0
  -28.7792   -1.6299   -3.8873 O   0  0  0  0  0  0  0  0  0  0  0  0
  -28.8923   -2.3898   -3.2957 H   0  0  0  0  0  0  0  0  0  0  0  0
  -29.8677   -4.2593   -4.6469 C   0  0  0  0  0  0  0  0  0  0  0  0
  -31.2411   -4.1217   -4.3639 C   0  0  0  0  0  0  0  0  0  0  0  0
  -31.9001   -4.9744   -3.4669 C   0  0  0  0  0  0  0  0  0  0  0  0
  -31.2216   -6.0381   -2.8823 C   0  0  0  0  0  0  0  0  0  0  0  0
  -29.8784   -6.2167   -3.1753 C   0  0  0  0  0  0  0  0  0  0  0  0
  -29.1792   -7.2776   -2.6785 O   0  0  0  0  0  0  0  0  0  0  0  0
  -29.2000   -5.3232   -4.0050 C   0  0  0  0  0  0  0  0  0  0  0  0
  -29.7849   -7.8363   -2.1639 H   0  0  0  0  0  0  0  0  0  0  0  0
  -28.4519    1.1815   -5.9347 C   0  0  0  0  0  0  0  0  0  0  0  0
  -27.6986    0.0486   -5.5408 O   0  0  0  0  0  0  0  0  0  0  0  0
  -29.1804   -7.3205   -7.9720 C   0  0  0  0  0  0  0  0  0  0  0  0
  -28.2834   -8.0639   -8.7447 C   0  0  0  0  0  0  0  0  0  0  0  0
  -28.6074   -9.3611   -9.1735 C   0  0  0  0  0  0  0  0  0  0  0  0
  -29.8581   -9.8979   -8.8694 C   0  0  0  0  0  0  0  0  0  0  0  0
  -30.7893   -9.1067   -8.2047 C   0  0  0  0  0  0  0  0  0  0  0  0
  -32.0285   -9.5703   -7.9744 F   0  0  0  0  0  0  0  0  0  0  0  0
  -30.4557   -7.8354   -7.7445 C   0  0  0  0  0  0  0  0  0  0  0  0
  -30.2673  -11.1657   -9.1980 O   0  0  0  0  0  0  0  0  0  0  0  0
  -29.6088  -12.2272   -8.5017 C   0  0  0  0  0  0  0  0  0  0  0  0
  -30.2328  -12.3609   -7.1001 C   0  0  0  0  0  0  0  0  0  0  0  0
  -29.2450  -12.4579   -6.0029 N   0  0  0  0  0  0  0  0  0  0  0  0
  -29.6324  -11.7071   -4.7991 C   0  0  0  0  0  0  0  0  0  0  0  0
  -29.2000  -10.2842   -5.0817 C   0  0  0  0  0  0  0  0  0  0  0  0
  -27.8610  -10.4837   -5.7659 C   0  0  0  0  0  0  0  0  0  0  0  0
  -27.9543  -11.8645   -6.4160 C   0  0  0  0  0  0  0  0  0  0  0  0
 21 22  1  0  0  0
 22  5  1  0  0  0
  5  6  1  0  0  0
  5 10  2  0  0  0
  6  7  2  0  0  0
  7  8  1  0  0  0
  8  1  1  0  0  0
  8  9  2  0  0  0
  1  2  2  0  0  0
  1  3  1  0  0  0
  3 23  1  0  0  0
  3  4  1  0  0  0
 23 24  1  0  0  0
 23 29  2  0  0  0
 24 25  2  0  0  0
 25 26  1  0  0  0
 26 30  1  0  0  0
 26 27  2  0  0  0
 30 31  1  0  0  0
 31 32  1  0  0  0
 32 33  1  0  0  0
 33 34  1  0  0  0
 33 37  1  0  0  0
 34 35  1  0  0  0
 35 36  1  0  0  0
 36 37  1  0  0  0
 27 28  1  0  0  0
 27 29  1  0  0  0
  9 13  1  0  0  0
  9 10  1  0  0  0
 13 14  1  0  0  0
 13 19  2  0  0  0
 14 15  2  0  0  0
 15 16  1  0  0  0
 16 17  2  0  0  0
 17 18  1  0  0  0
 17 19  1  0  0  0
 18 20  1  0  0  0
 10 11  1  0  0  0
 11 12  1  0  0  0
M  END
> <minimizedAffinity>
-8.13436

$$$$
