CHEMBL3934039


 37 41  0  0  0  0  0  0  0  0999 V2000
  -28.5860   -9.9892   -5.5860 N   0  0  0  0  0  0  0  0  0  0  0  0
  -28.5009   -8.5948   -5.1947 C   0  0  0  0  0  0  0  0  0  0  0  0
  -28.8638   -8.3552   -3.8726 C   0  0  0  0  0  0  0  0  0  0  0  0
  -29.5011   -7.1683   -3.5481 C   0  0  0  0  0  0  0  0  0  0  0  0
  -29.6009   -6.1344   -4.4399 C   0  0  0  0  0  0  0  0  0  0  0  0
  -30.4247   -5.1712   -4.0628 N   0  0  0  0  0  0  0  0  0  0  0  0
  -30.3903   -4.0292   -4.7682 C   0  0  0  0  0  0  0  0  0  0  0  0
  -29.4561   -3.8205   -5.7594 C   0  0  0  0  0  0  0  0  0  0  0  0
  -28.7143   -4.8702   -6.2538 N   0  0  0  0  0  0  0  0  0  0  0  0
  -28.8405   -6.1330   -5.6273 C   0  0  0  0  0  0  0  0  0  0  0  0
  -28.3600   -7.4481   -6.0328 C   0  0  0  0  0  0  0  0  0  0  0  0
  -29.1580   -2.4065   -6.0364 C   0  0  0  0  0  0  0  0  0  0  0  0
  -28.1350   -1.8665   -6.8669 C   0  0  0  0  0  0  0  0  0  0  0  0
  -27.9138   -0.5634   -6.6467 N   0  0  0  0  0  0  0  0  0  0  0  0
  -28.7712   -0.2615   -5.6583 N   0  0  0  0  0  0  0  0  0  0  0  0
  -28.9585    1.1112   -5.2453 C   0  0  0  0  0  0  0  0  0  0  0  0
  -29.4307   -1.3598   -5.1726 C   0  0  0  0  0  0  0  0  0  0  0  0
  -31.5474  -11.1767   -7.5750 C   0  0  0  0  0  0  0  0  0  0  0  0
  -30.9637  -11.4316   -8.8139 C   0  0  0  0  0  0  0  0  0  0  0  0
  -29.5917  -11.2850   -8.9736 C   0  0  0  0  0  0  0  0  0  0  0  0
  -28.8068  -10.8678   -7.8909 C   0  0  0  0  0  0  0  0  0  0  0  0
  -29.3479  -10.5874   -6.6245 C   0  0  0  0  0  0  0  0  0  0  0  0
  -30.7394  -10.7861   -6.4839 C   0  0  0  0  0  0  0  0  0  0  0  0
  -33.3261  -12.0813   -6.2520 C   0  0  0  0  0  0  0  0  0  0  0  0
  -32.9046  -11.2451   -7.3343 O   0  0  0  0  0  0  0  0  0  0  0  0
  -28.8982  -11.4881  -10.1397 O   0  0  0  0  0  0  0  0  0  0  0  0
  -28.9319  -10.4402  -11.1025 C   0  0  0  0  0  0  0  0  0  0  0  0
  -28.3265  -10.8443   -4.3411 C   0  0  0  0  0  0  0  0  0  0  0  0
  -27.3205  -12.0391   -4.4905 C   0  0  0  0  0  0  0  0  0  0  0  0
  -25.9885  -11.7839   -3.8684 N   0  0  0  0  0  0  0  0  0  0  0  0
  -25.6749  -10.4177   -3.4235 C   0  0  0  0  0  0  0  0  0  0  0  0
  -24.9950   -9.5070   -4.4479 C   0  0  0  0  0  0  0  0  0  0  0  0
  -23.8435  -10.2122   -5.1263 C   0  0  0  0  0  0  0  0  0  0  0  0
  -23.3566   -9.4301   -6.1235 F   0  0  0  0  0  0  0  0  0  0  0  0
  -22.8210  -10.3814   -4.2475 F   0  0  0  0  0  0  0  0  0  0  0  0
  -24.2648  -11.5517   -5.6862 C   0  0  0  0  0  0  0  0  0  0  0  0
  -24.8525  -12.4022   -4.5675 C   0  0  0  0  0  0  0  0  0  0  0  0
 24 25  1  0  0  0
 25 18  1  0  0  0
 18 19  1  0  0  0
 18 23  2  0  0  0
 19 20  2  0  0  0
 20 26  1  0  0  0
 20 21  1  0  0  0
 26 27  1  0  0  0
 21 22  2  0  0  0
 22  1  1  0  0  0
 22 23  1  0  0  0
  1 28  1  0  0  0
  1  2  1  0  0  0
 28 29  1  0  0  0
 29 30  1  0  0  0
 30 31  1  0  0  0
 30 37  1  0  0  0
 31 32  1  0  0  0
 32 33  1  0  0  0
 33 34  1  0  0  0
 33 35  1  0  0  0
 33 36  1  0  0  0
 36 37  1  0  0  0
  2  3  1  0  0  0
  2 11  2  0  0  0
  3  4  2  0  0  0
  4  5  1  0  0  0
  5  6  1  0  0  0
  5 10  2  0  0  0
  6  7  2  0  0  0
  7  8  1  0  0  0
  8 12  1  0  0  0
  8  9  2  0  0  0
 12 13  1  0  0  0
 12 17  2  0  0  0
 13 14  2  0  0  0
 14 15  1  0  0  0
 15 16  1  0  0  0
 15 17  1  0  0  0
  9 10  1  0  0  0
 10 11  1  0  0  0
M  END
> <minimizedAffinity>
-8.28715

$$$$
