CHEMBL1940846


 23 25  0  0  0  0  0  0  0  0999 V2000
  -29.4836   -8.7874   -5.8332 C   0  0  0  0  0  0  0  0  0  0  0  0
  -29.1183   -7.3415   -5.6722 C   0  0  0  0  0  0  0  0  0  0  0  0
  -28.8301   -6.8029   -4.4190 C   0  0  0  0  0  0  0  0  0  0  0  0
  -28.4952   -5.4497   -4.2929 C   0  0  0  0  0  0  0  0  0  0  0  0
  -28.4409   -4.6032   -5.3940 C   0  0  0  0  0  0  0  0  0  0  0  0
  -28.1281   -3.3106   -5.2281 N   0  0  0  0  0  0  0  0  0  0  0  0
  -28.1026   -2.5158   -6.3254 C   0  0  0  0  0  0  0  0  0  0  0  0
  -27.6711   -0.8929   -5.9293 Cl  0  0  0  0  0  0  0  0  0  0  0  0
  -28.3622   -2.9356   -7.6349 C   0  0  0  0  0  0  0  0  0  0  0  0
  -28.6862   -4.2890   -7.7753 C   0  0  0  0  0  0  0  0  0  0  0  0
  -28.7307   -5.1443   -6.6607 C   0  0  0  0  0  0  0  0  0  0  0  0
  -29.0626   -6.5037   -6.7922 C   0  0  0  0  0  0  0  0  0  0  0  0
  -28.3573   -2.0220   -8.7988 C   0  0  0  0  0  0  0  0  0  0  0  0
  -27.4301   -2.0091   -9.7711 C   0  0  0  0  0  0  0  0  0  0  0  0
  -27.5282   -1.0048  -10.8742 C   0  0  0  0  0  0  0  0  0  0  0  0
  -28.4406   -0.1928  -10.9295 O   0  0  0  0  0  0  0  0  0  0  0  0
  -26.4526   -1.1033  -11.8598 C   0  0  0  0  0  0  0  0  0  0  0  0
  -25.0881   -0.6424  -11.7113 C   0  0  0  0  0  0  0  0  0  0  0  0
  -24.3355   -0.8910  -12.8310 C   0  0  0  0  0  0  0  0  0  0  0  0
  -22.6747   -0.5217  -13.0540 Cl  0  0  0  0  0  0  0  0  0  0  0  0
  -25.2027   -1.6451  -14.0671 S   0  0  0  0  0  0  0  0  0  0  0  0
  -26.6176   -1.6383  -13.1245 C   0  0  0  0  0  0  0  0  0  0  0  0
  -28.0357   -2.3252  -13.8219 Cl  0  0  0  0  0  0  0  0  0  0  0  0
  1  2  1  0  0  0
  2  3  1  0  0  0
  2 12  2  0  0  0
  3  4  2  0  0  0
  4  5  1  0  0  0
  5  6  1  0  0  0
  5 11  2  0  0  0
  6  7  2  0  0  0
  7  8  1  0  0  0
  7  9  1  0  0  0
  9 13  1  0  0  0
  9 10  2  0  0  0
 13 14  2  0  0  0
 14 15  1  0  0  0
 15 16  2  0  0  0
 15 17  1  0  0  0
 17 18  1  0  0  0
 17 22  2  0  0  0
 18 19  2  0  0  0
 19 20  1  0  0  0
 19 21  1  0  0  0
 21 22  1  0  0  0
 22 23  1  0  0  0
 10 11  1  0  0  0
 11 12  1  0  0  0
M  END
> <minimizedAffinity>
-8.58495

$$$$
