CHEMBL2018774


 36 38  0  0  0  0  0  0  0  0999 V2000
  -29.0935   -8.3985   -4.8595 C   0  0  0  0  0  0  0  0  0  0  0  0
  -28.8283   -8.5754   -3.5493 N   0  0  0  0  0  0  0  0  0  0  0  0
  -27.8262   -9.3955   -3.2438 C   0  0  0  0  0  0  0  0  0  0  0  0
  -27.0670  -10.0542   -4.1207 N   0  0  0  0  0  0  0  0  0  0  0  0
  -27.3373   -9.8552   -5.4102 C   0  0  0  0  0  0  0  0  0  0  0  0
  -26.5711  -10.5229   -6.3452 C   0  0  0  0  0  0  0  0  0  0  0  0
  -26.7371  -10.3658   -7.7347 C   0  0  0  0  0  0  0  0  0  0  0  0
  -27.8099   -9.5959   -8.1987 C   0  0  0  0  0  0  0  0  0  0  0  0
  -28.5875   -8.9059   -7.2588 C   0  0  0  0  0  0  0  0  0  0  0  0
  -28.3482   -9.0187   -5.8675 C   0  0  0  0  0  0  0  0  0  0  0  0
  -30.1767   -7.5721   -5.2119 N   0  0  0  0  0  0  0  0  0  0  0  0
  -30.7524   -8.0140   -5.9200 H   0  0  0  0  0  0  0  0  0  0  0  0
  -29.8584   -3.3612   -5.3875 C   0  0  0  0  0  0  0  0  0  0  0  0
  -30.3116   -4.0189   -4.2325 C   0  0  0  0  0  0  0  0  0  0  0  0
  -30.4181   -5.4048   -4.1741 C   0  0  0  0  0  0  0  0  0  0  0  0
  -30.1250   -6.1719   -5.2907 C   0  0  0  0  0  0  0  0  0  0  0  0
  -29.6896   -5.5200   -6.4551 C   0  0  0  0  0  0  0  0  0  0  0  0
  -29.5416   -4.1246   -6.5222 C   0  0  0  0  0  0  0  0  0  0  0  0
  -29.0223   -3.5315   -7.8028 C   0  0  0  0  0  0  0  0  0  0  0  0
  -28.6583   -1.2300   -5.0228 C   0  0  0  0  0  0  0  0  0  0  0  0
  -27.5353   -1.6592   -4.7634 O   0  0  0  0  0  0  0  0  0  0  0  0
  -29.7454   -1.9556   -5.4218 N   0  0  0  0  0  0  0  0  0  0  0  0
  -30.5384   -1.4102   -5.7285 H   0  0  0  0  0  0  0  0  0  0  0  0
  -28.9979    0.0794   -4.8953 O   0  0  0  0  0  0  0  0  0  0  0  0
  -30.5498    1.4644   -6.0939 C   0  0  0  0  0  0  0  0  0  0  0  0
  -29.2212    0.7297   -6.1584 C   0  0  0  0  0  0  0  0  0  0  0  0
  -25.8576  -10.9446   -8.6114 O   0  0  0  0  0  0  0  0  0  0  0  0
  -24.8180  -11.7282   -8.0027 C   0  0  0  0  0  0  0  0  0  0  0  0
  -28.2554   -9.3519   -9.4638 O   0  0  0  0  0  0  0  0  0  0  0  0
  -29.5074   -9.8443   -9.9343 C   0  0  0  0  0  0  0  0  0  0  0  0
  -29.9517  -11.1513   -9.2413 C   0  0  0  0  0  0  0  0  0  0  0  0
  -31.2743  -11.0809   -8.5672 N   0  0  0  0  0  0  0  0  0  0  0  0
  -31.3289  -11.8600   -7.3213 C   0  0  0  0  0  0  0  0  0  0  0  0
  -29.9843  -12.2938   -6.7500 C   0  0  0  0  0  0  0  0  0  0  0  0
  -31.6928   -9.6751   -8.4071 C   0  0  0  0  0  0  0  0  0  0  0  0
  -32.6506   -9.4278   -7.2410 C   0  0  0  0  0  0  0  0  0  0  0  0
 25 26  1  0  0  0
 26 24  1  0  0  0
 24 20  1  0  0  0
 20 21  2  0  0  0
 20 22  1  0  0  0
 22 13  1  0  0  0
 22 23  1  0  0  0
 13 14  1  0  0  0
 13 18  2  0  0  0
 14 15  2  0  0  0
 15 16  1  0  0  0
 16 11  1  0  0  0
 16 17  2  0  0  0
 11  1  1  0  0  0
 11 12  1  0  0  0
  1  2  1  0  0  0
  1 10  2  0  0  0
  2  3  2  0  0  0
  3  4  1  0  0  0
  4  5  2  0  0  0
  5  6  1  0  0  0
  5 10  1  0  0  0
  6  7  2  0  0  0
  7 27  1  0  0  0
  7  8  1  0  0  0
 27 28  1  0  0  0
  8 29  1  0  0  0
  8  9  2  0  0  0
 29 30  1  0  0  0
 30 31  1  0  0  0
 31 32  1  0  0  0
 32 33  1  0  0  0
 32 35  1  0  0  0
 33 34  1  0  0  0
 35 36  1  0  0  0
  9 10  1  0  0  0
 17 18  1  0  0  0
 18 19  1  0  0  0
M  END
> <minimizedAffinity>
-7.24178

$$$$
