CHEMBL4584717


 28 30  0  0  0  0  0  0  0  0999 V2000
  -21.3862    1.2676  -14.4342 C   0  0  0  0  0  0  0  0  0  0  0  0
  -21.2308    2.6496  -14.2537 C   0  0  0  0  0  0  0  0  0  0  0  0
  -20.0206    3.2844  -14.5060 C   0  0  0  0  0  0  0  0  0  0  0  0
  -18.9323    2.5317  -14.9132 C   0  0  0  0  0  0  0  0  0  0  0  0
  -19.0514    1.1462  -15.0757 C   0  0  0  0  0  0  0  0  0  0  0  0
  -20.2739    0.5072  -14.8204 C   0  0  0  0  0  0  0  0  0  0  0  0
  -22.2884   -0.0695  -12.0302 O   0  0  0  0  0  0  0  0  0  0  0  0
  -22.9842   -0.0083  -13.0404 C   0  0  0  0  0  0  0  0  0  0  0  0
  -22.6373    0.6366  -14.2246 N   0  0  0  0  0  0  0  0  0  0  0  0
  -23.3828    0.7668  -14.9026 H   0  0  0  0  0  0  0  0  0  0  0  0
  -24.3334   -0.6405  -12.9825 C   0  0  0  0  0  0  0  0  0  0  0  0
  -24.8436   -1.1700  -14.1683 C   0  0  0  0  0  0  0  0  0  0  0  0
  -26.1108   -1.7303  -14.1592 C   0  0  0  0  0  0  0  0  0  0  0  0
  -26.8264   -1.7381  -12.9702 C   0  0  0  0  0  0  0  0  0  0  0  0
  -26.2377   -1.1904  -11.8333 C   0  0  0  0  0  0  0  0  0  0  0  0
  -24.9969   -0.6464  -11.8008 N   0  0  0  0  0  0  0  0  0  0  0  0
  -17.8576    0.4712  -15.3696 N   0  0  0  0  0  0  0  0  0  0  0  0
  -17.9321   -0.2481  -16.0787 H   0  0  0  0  0  0  0  0  0  0  0  0
  -16.5754    0.6194  -14.8920 C   0  0  0  0  0  0  0  0  0  0  0  0
  -16.0923    0.4716  -13.3050 S   0  0  0  0  0  0  0  0  0  0  0  0
  -15.6394    0.7142  -15.9087 N   0  0  0  0  0  0  0  0  0  0  0  0
  -15.1764   -0.1424  -16.1900 H   0  0  0  0  0  0  0  0  0  0  0  0
  -15.2874    1.9256  -16.5449 C   0  0  0  0  0  0  0  0  0  0  0  0
  -15.7786    3.1505  -16.0706 C   0  0  0  0  0  0  0  0  0  0  0  0
  -15.5455    4.3323  -16.7656 C   0  0  0  0  0  0  0  0  0  0  0  0
  -14.7908    4.3003  -17.9313 C   0  0  0  0  0  0  0  0  0  0  0  0
  -14.2280    3.0969  -18.3653 C   0  0  0  0  0  0  0  0  0  0  0  0
  -14.4558    1.9091  -17.6608 C   0  0  0  0  0  0  0  0  0  0  0  0
  7  8  2  0  0  0
  8  9  1  0  0  0
  8 11  1  0  0  0
  9  1  1  0  0  0
  9 10  1  0  0  0
  1  2  1  0  0  0
  1  6  2  0  0  0
  2  3  2  0  0  0
  3  4  1  0  0  0
  4  5  2  0  0  0
  5 17  1  0  0  0
  5  6  1  0  0  0
 17 19  1  0  0  0
 17 18  1  0  0  0
 19 20  2  0  0  0
 19 21  1  0  0  0
 21 23  1  0  0  0
 21 22  1  0  0  0
 23 24  1  0  0  0
 23 28  2  0  0  0
 24 25  2  0  0  0
 25 26  1  0  0  0
 26 27  2  0  0  0
 27 28  1  0  0  0
 11 12  1  0  0  0
 11 16  2  0  0  0
 12 13  2  0  0  0
 13 14  1  0  0  0
 14 15  2  0  0  0
 15 16  1  0  0  0
M  END
> <minimizedAffinity>
-8.68511

$$$$
