CHEMBL3742328


 36 39  0  0  0  0  0  0  0  0999 V2000
  -21.6707    1.0398  -14.2586 C   0  0  0  0  0  0  0  0  0  0  0  0
  -22.6937    1.8795  -13.8919 C   0  0  0  0  0  0  0  0  0  0  0  0
  -22.3977    3.2119  -13.9673 C   0  0  0  0  0  0  0  0  0  0  0  0
  -21.2001    3.6794  -14.3568 N   0  0  0  0  0  0  0  0  0  0  0  0
  -20.2745    2.7811  -14.7443 C   0  0  0  0  0  0  0  0  0  0  0  0
  -20.4847    1.4606  -14.7412 N   0  0  0  0  0  0  0  0  0  0  0  0
  -19.0362    3.2171  -15.1994 N   0  0  0  0  0  0  0  0  0  0  0  0
  -19.1360    4.0417  -15.7754 H   0  0  0  0  0  0  0  0  0  0  0  0
  -17.8592    2.4770  -15.3787 C   0  0  0  0  0  0  0  0  0  0  0  0
  -16.8762    2.9610  -16.2448 C   0  0  0  0  0  0  0  0  0  0  0  0
  -15.6672    2.2806  -16.3979 C   0  0  0  0  0  0  0  0  0  0  0  0
  -15.4345    1.0929  -15.7030 C   0  0  0  0  0  0  0  0  0  0  0  0
  -16.4007    0.5780  -14.8316 C   0  0  0  0  0  0  0  0  0  0  0  0
  -17.6064    1.2848  -14.6823 C   0  0  0  0  0  0  0  0  0  0  0  0
  -16.2205   -0.7415  -14.1269 C   0  0  0  0  0  0  0  0  0  0  0  0
  -15.0040   -0.6778  -12.8210 S   0  0  0  0  0  0  0  0  0  0  0  0
  -13.4959   -1.2680  -13.5588 C   0  0  0  0  0  0  0  0  0  0  0  0
  -14.7908    0.7287  -12.5101 O   0  0  0  0  0  0  0  0  0  0  0  0
  -15.3765   -1.5927  -11.7574 O   0  0  0  0  0  0  0  0  0  0  0  0
  -21.9227   -0.3234  -14.1516 O   0  0  0  0  0  0  0  0  0  0  0  0
  -26.7066   -1.8806  -11.5871 C   0  0  0  0  0  0  0  0  0  0  0  0
  -27.8252   -2.1252  -12.4038 C   0  0  0  0  0  0  0  0  0  0  0  0
  -27.7314   -2.0054  -13.7865 C   0  0  0  0  0  0  0  0  0  0  0  0
  -26.5233   -1.6312  -14.3695 C   0  0  0  0  0  0  0  0  0  0  0  0
  -25.3905   -1.3684  -13.5845 C   0  0  0  0  0  0  0  0  0  0  0  0
  -24.1874   -0.9830  -14.2042 C   0  0  0  0  0  0  0  0  0  0  0  0
  -23.0424   -0.7184  -13.4540 C   0  0  0  0  0  0  0  0  0  0  0  0
  -23.1048   -0.7927  -12.0681 C   0  0  0  0  0  0  0  0  0  0  0  0
  -24.2846   -1.2010  -11.4425 C   0  0  0  0  0  0  0  0  0  0  0  0
  -25.4643   -1.4883  -12.1703 C   0  0  0  0  0  0  0  0  0  0  0  0
  -27.5924   -3.0653   -9.6292 N   0  0  0  0  0  0  0  0  0  0  0  0
  -26.8847   -1.9729  -10.1002 C   0  0  0  0  0  0  0  0  0  0  0  0
  -26.4340   -1.1159   -9.3494 O   0  0  0  0  0  0  0  0  0  0  0  0
  -27.8366   -3.8173  -10.2583 H   0  0  0  0  0  0  0  0  0  0  0  0
  -29.1864   -3.7842   -7.9126 C   0  0  0  0  0  0  0  0  0  0  0  0
  -27.7875   -3.2761   -8.2084 C   0  0  0  0  0  0  0  0  0  0  0  0
 35 36  1  0  0  0
 36 31  1  0  0  0
 31 32  1  0  0  0
 31 34  1  0  0  0
 32 33  2  0  0  0
 32 21  1  0  0  0
 21 22  1  0  0  0
 21 30  2  0  0  0
 22 23  2  0  0  0
 23 24  1  0  0  0
 24 25  2  0  0  0
 25 26  1  0  0  0
 25 30  1  0  0  0
 26 27  2  0  0  0
 27 20  1  0  0  0
 27 28  1  0  0  0
 20  1  1  0  0  0
  1  2  1  0  0  0
  1  6  2  0  0  0
  2  3  2  0  0  0
  3  4  1  0  0  0
  4  5  2  0  0  0
  5  7  1  0  0  0
  5  6  1  0  0  0
  7  9  1  0  0  0
  7  8  1  0  0  0
  9 10  1  0  0  0
  9 14  2  0  0  0
 10 11  2  0  0  0
 11 12  1  0  0  0
 12 13  2  0  0  0
 13 15  1  0  0  0
 13 14  1  0  0  0
 15 16  1  0  0  0
 16 17  1  0  0  0
 16 18  2  0  0  0
 16 19  2  0  0  0
 28 29  2  0  0  0
 29 30  1  0  0  0
M  END
> <minimizedAffinity>
-11.03373

$$$$
