CHEMBL3922586


 32 35  0  0  0  0  0  0  0  0999 V2000
  -15.7049    1.3632  -15.8204 N   0  0  0  0  0  0  0  0  0  0  0  0
  -17.0251    1.8507  -15.6437 C   0  0  0  0  0  0  0  0  0  0  0  0
  -17.3728    3.1763  -15.9429 C   0  0  0  0  0  0  0  0  0  0  0  0
  -18.6360    3.6741  -15.6252 C   0  0  0  0  0  0  0  0  0  0  0  0
  -19.5951    2.8624  -15.0527 C   0  0  0  0  0  0  0  0  0  0  0  0
  -20.7838    3.3920  -14.7277 N   0  0  0  0  0  0  0  0  0  0  0  0
  -21.6917    2.5370  -14.2009 C   0  0  0  0  0  0  0  0  0  0  0  0
  -21.4405    1.1837  -14.0241 C   0  0  0  0  0  0  0  0  0  0  0  0
  -20.2290    0.6530  -14.3221 N   0  0  0  0  0  0  0  0  0  0  0  0
  -19.3027    1.4943  -14.8258 C   0  0  0  0  0  0  0  0  0  0  0  0
  -18.0294    1.0227  -15.1209 C   0  0  0  0  0  0  0  0  0  0  0  0
  -22.4737    0.2759  -13.5647 C   0  0  0  0  0  0  0  0  0  0  0  0
  -22.7123   -0.2870  -12.2902 C   0  0  0  0  0  0  0  0  0  0  0  0
  -23.8139   -1.0393  -12.2527 N   0  0  0  0  0  0  0  0  0  0  0  0
  -24.2964   -0.9508  -13.5050 N   0  0  0  0  0  0  0  0  0  0  0  0
  -25.5426   -1.5940  -13.8428 C   0  0  0  0  0  0  0  0  0  0  0  0
  -23.5215   -0.1911  -14.3329 C   0  0  0  0  0  0  0  0  0  0  0  0
  -13.7220    1.1511  -19.0128 C   0  0  0  0  0  0  0  0  0  0  0  0
  -13.2637    2.4565  -19.1452 C   0  0  0  0  0  0  0  0  0  0  0  0
  -13.5103    3.3966  -18.1431 C   0  0  0  0  0  0  0  0  0  0  0  0
  -14.2122    3.0103  -16.9819 C   0  0  0  0  0  0  0  0  0  0  0  0
  -14.1338    4.0377  -15.5735 Cl  0  0  0  0  0  0  0  0  0  0  0  0
  -14.8228    1.7216  -16.8858 C   0  0  0  0  0  0  0  0  0  0  0  0
  -14.5382    0.8104  -17.9255 C   0  0  0  0  0  0  0  0  0  0  0  0
  -13.3983   -1.1684  -19.3448 C   0  0  0  0  0  0  0  0  0  0  0  0
  -13.4569    0.1444  -19.9043 O   0  0  0  0  0  0  0  0  0  0  0  0
  -12.9163    4.6110  -18.3866 O   0  0  0  0  0  0  0  0  0  0  0  0
  -13.7923    5.6843  -18.7253 C   0  0  0  0  0  0  0  0  0  0  0  0
  -15.2532    0.3585  -14.8129 C   0  0  0  0  0  0  0  0  0  0  0  0
  -14.3108    0.9392  -13.7308 C   0  0  0  0  0  0  0  0  0  0  0  0
  -14.7820    0.6939  -12.4095 O   0  0  0  0  0  0  0  0  0  0  0  0
  -15.4409    1.3862  -12.2182 H   0  0  0  0  0  0  0  0  0  0  0  0
 25 26  1  0  0  0
 26 18  1  0  0  0
 18 19  1  0  0  0
 18 24  2  0  0  0
 19 20  2  0  0  0
 20 27  1  0  0  0
 20 21  1  0  0  0
 27 28  1  0  0  0
 21 22  1  0  0  0
 21 23  2  0  0  0
 23  1  1  0  0  0
 23 24  1  0  0  0
  1 29  1  0  0  0
  1  2  1  0  0  0
 29 30  1  0  0  0
 30 31  1  0  0  0
 31 32  1  0  0  0
  2  3  1  0  0  0
  2 11  2  0  0  0
  3  4  2  0  0  0
  4  5  1  0  0  0
  5  6  1  0  0  0
  5 10  2  0  0  0
  6  7  2  0  0  0
  7  8  1  0  0  0
  8 12  1  0  0  0
  8  9  2  0  0  0
 12 13  1  0  0  0
 12 17  2  0  0  0
 13 14  2  0  0  0
 14 15  1  0  0  0
 15 16  1  0  0  0
 15 17  1  0  0  0
  9 10  1  0  0  0
 10 11  1  0  0  0
M  END
> <minimizedAffinity>
-8.30162

$$$$
