CHEMBL1982465


 40 44  0  0  0  0  0  0  0  0999 V2000
  -21.8159    0.2735  -14.3244 C   0  0  0  0  0  0  0  0  0  0  0  0
  -21.0047   -0.7663  -14.7405 C   0  0  0  0  0  0  0  0  0  0  0  0
  -19.4968   -0.2652  -15.3237 S   0  0  0  0  0  0  0  0  0  0  0  0
  -19.8581    1.4018  -15.0667 C   0  0  0  0  0  0  0  0  0  0  0  0
  -19.0205    2.4991  -15.3414 C   0  0  0  0  0  0  0  0  0  0  0  0
  -19.5334    3.7459  -15.0649 C   0  0  0  0  0  0  0  0  0  0  0  0
  -20.7456    3.9578  -14.5266 N   0  0  0  0  0  0  0  0  0  0  0  0
  -21.5483    2.9129  -14.2260 C   0  0  0  0  0  0  0  0  0  0  0  0
  -22.7358    3.2847  -13.6087 N   0  0  0  0  0  0  0  0  0  0  0  0
  -21.1462    1.5741  -14.5127 C   0  0  0  0  0  0  0  0  0  0  0  0
  -22.6684    4.2629  -13.3454 H   0  0  0  0  0  0  0  0  0  0  0  0
  -23.0039    2.6631  -12.8554 H   0  0  0  0  0  0  0  0  0  0  0  0
  -25.5893   -0.8789  -12.5887 C   0  0  0  0  0  0  0  0  0  0  0  0
  -25.2189   -1.3235  -13.8590 C   0  0  0  0  0  0  0  0  0  0  0  0
  -24.0031   -0.9296  -14.4270 C   0  0  0  0  0  0  0  0  0  0  0  0
  -23.1412   -0.0473  -13.7558 C   0  0  0  0  0  0  0  0  0  0  0  0
  -23.5873    0.4936  -12.5429 C   0  0  0  0  0  0  0  0  0  0  0  0
  -24.7949    0.0744  -11.9537 C   0  0  0  0  0  0  0  0  0  0  0  0
  -27.8351   -2.2194  -10.0583 N   0  0  0  0  0  0  0  0  0  0  0  0
  -26.6448   -1.7118  -10.5543 C   0  0  0  0  0  0  0  0  0  0  0  0
  -25.6436   -1.4842   -9.8813 O   0  0  0  0  0  0  0  0  0  0  0  0
  -26.7162   -1.4228  -11.9172 N   0  0  0  0  0  0  0  0  0  0  0  0
  -28.4972   -2.5693  -10.7353 H   0  0  0  0  0  0  0  0  0  0  0  0
  -27.6234   -1.1194  -12.2423 H   0  0  0  0  0  0  0  0  0  0  0  0
  -27.7655   -0.6143   -5.3640 C   0  0  0  0  0  0  0  0  0  0  0  0
  -28.0733   -1.6805   -6.3734 C   0  0  0  0  0  0  0  0  0  0  0  0
  -28.6211   -2.8962   -5.9491 C   0  0  0  0  0  0  0  0  0  0  0  0
  -28.9085   -3.8912   -6.8708 C   0  0  0  0  0  0  0  0  0  0  0  0
  -28.6501   -3.6807   -8.2290 C   0  0  0  0  0  0  0  0  0  0  0  0
  -28.1150   -2.4714   -8.6896 C   0  0  0  0  0  0  0  0  0  0  0  0
  -27.8235   -1.4775   -7.7447 C   0  0  0  0  0  0  0  0  0  0  0  0
  -17.7090    2.3302  -15.8856 C   0  0  0  0  0  0  0  0  0  0  0  0
  -16.5050    2.1997  -16.3687 C   0  0  0  0  0  0  0  0  0  0  0  0
  -15.1014    2.0477  -16.9319 C   0  0  0  0  0  0  0  0  0  0  0  0
  -14.2063    3.1971  -16.8267 N   0  0  0  0  0  0  0  0  0  0  0  0
  -14.8307    4.4598  -17.2711 C   0  0  0  0  0  0  0  0  0  0  0  0
  -15.1649    4.4903  -18.7705 C   0  0  0  0  0  0  0  0  0  0  0  0
  -14.0093    4.2241  -19.5785 O   0  0  0  0  0  0  0  0  0  0  0  0
  -13.3796    2.9903  -19.2158 C   0  0  0  0  0  0  0  0  0  0  0  0
  -13.0329    2.9552  -17.7116 C   0  0  0  0  0  0  0  0  0  0  0  0
 25 26  1  0  0  0
 26 27  1  0  0  0
 26 31  2  0  0  0
 27 28  2  0  0  0
 28 29  1  0  0  0
 29 30  2  0  0  0
 30 19  1  0  0  0
 30 31  1  0  0  0
 19 20  1  0  0  0
 19 23  1  0  0  0
 20 21  2  0  0  0
 20 22  1  0  0  0
 22 13  1  0  0  0
 22 24  1  0  0  0
 13 14  1  0  0  0
 13 18  2  0  0  0
 14 15  2  0  0  0
 15 16  1  0  0  0
 16  1  1  0  0  0
 16 17  2  0  0  0
  1  2  2  0  0  0
  1 10  1  0  0  0
  2  3  1  0  0  0
  3  4  1  0  0  0
  4  5  1  0  0  0
  4 10  2  0  0  0
  5 32  1  0  0  0
  5  6  2  0  0  0
 32 33  3  0  0  0
 33 34  1  0  0  0
 34 35  1  0  0  0
 35 36  1  0  0  0
 35 40  1  0  0  0
 36 37  1  0  0  0
 37 38  1  0  0  0
 38 39  1  0  0  0
 39 40  1  0  0  0
  6  7  1  0  0  0
  7  8  2  0  0  0
  8  9  1  0  0  0
  8 10  1  0  0  0
  9 11  1  0  0  0
  9 12  1  0  0  0
 17 18  1  0  0  0
M  END
> <minimizedAffinity>
-10.32693

$$$$
