CHEMBL184918


 30 33  0  0  0  0  0  0  0  0999 V2000
  -26.1251   -1.3169  -11.6837 C   0  0  0  0  0  0  0  0  0  0  0  0
  -25.5137   -1.5876  -10.4612 C   0  0  0  0  0  0  0  0  0  0  0  0
  -26.2839   -1.9745   -9.3575 C   0  0  0  0  0  0  0  0  0  0  0  0
  -27.6843   -2.0800   -9.4384 C   0  0  0  0  0  0  0  0  0  0  0  0
  -28.2753   -1.7228  -10.6625 C   0  0  0  0  0  0  0  0  0  0  0  0
  -27.5118   -1.3482  -11.7725 C   0  0  0  0  0  0  0  0  0  0  0  0
  -28.4937   -2.5318   -8.2817 C   0  0  0  0  0  0  0  0  0  0  0  0
  -29.2742   -3.7104   -8.3645 C   0  0  0  0  0  0  0  0  0  0  0  0
  -30.0575   -4.1838   -7.2916 C   0  0  0  0  0  0  0  0  0  0  0  0
  -30.0849   -3.4980   -6.0837 C   0  0  0  0  0  0  0  0  0  0  0  0
  -29.3367   -2.3422   -6.0031 C   0  0  0  0  0  0  0  0  0  0  0  0
  -28.5594   -1.8479   -7.0632 C   0  0  0  0  0  0  0  0  0  0  0  0
  -27.9281   -0.5606   -6.6288 C   0  0  0  0  0  0  0  0  0  0  0  0
  -28.4094   -0.3945   -5.2797 N   0  0  0  0  0  0  0  0  0  0  0  0
  -29.2134   -1.4290   -4.8553 C   0  0  0  0  0  0  0  0  0  0  0  0
  -29.7061   -1.5750   -3.7537 O   0  0  0  0  0  0  0  0  0  0  0  0
  -28.1177    0.3309   -4.6407 H   0  0  0  0  0  0  0  0  0  0  0  0
  -23.7681    0.1015  -14.1342 N   0  0  0  0  0  0  0  0  0  0  0  0
  -24.3607   -0.4900  -15.3329 C   0  0  0  0  0  0  0  0  0  0  0  0
  -24.4129   -0.0438  -12.8826 C   0  0  0  0  0  0  0  0  0  0  0  0
  -24.1489    0.6280  -11.8866 O   0  0  0  0  0  0  0  0  0  0  0  0
  -25.3886   -1.0365  -12.8542 N   0  0  0  0  0  0  0  0  0  0  0  0
  -25.1893   -1.8355  -13.4339 H   0  0  0  0  0  0  0  0  0  0  0  0
  -18.8818    0.6372  -15.1226 C   0  0  0  0  0  0  0  0  0  0  0  0
  -20.1990    1.2415  -14.7344 C   0  0  0  0  0  0  0  0  0  0  0  0
  -20.3123    2.6126  -14.5065 C   0  0  0  0  0  0  0  0  0  0  0  0
  -21.5402    3.1516  -14.1473 C   0  0  0  0  0  0  0  0  0  0  0  0
  -22.6590    2.3230  -14.0139 C   0  0  0  0  0  0  0  0  0  0  0  0
  -22.5946    0.9406  -14.2590 C   0  0  0  0  0  0  0  0  0  0  0  0
  -21.3385    0.4215  -14.6146 C   0  0  0  0  0  0  0  0  0  0  0  0
 24 25  1  0  0  0
 25 26  1  0  0  0
 25 30  2  0  0  0
 26 27  2  0  0  0
 27 28  1  0  0  0
 28 29  2  0  0  0
 29 18  1  0  0  0
 29 30  1  0  0  0
 18 19  1  0  0  0
 18 20  1  0  0  0
 20 21  2  0  0  0
 20 22  1  0  0  0
 22  1  1  0  0  0
 22 23  1  0  0  0
  1  2  1  0  0  0
  1  6  2  0  0  0
  2  3  2  0  0  0
  3  4  1  0  0  0
  4  7  1  0  0  0
  4  5  2  0  0  0
  7  8  1  0  0  0
  7 12  2  0  0  0
  8  9  2  0  0  0
  9 10  1  0  0  0
 10 11  2  0  0  0
 11 12  1  0  0  0
 11 15  1  0  0  0
 12 13  1  0  0  0
 13 14  1  0  0  0
 14 15  1  0  0  0
 14 17  1  0  0  0
 15 16  2  0  0  0
  5  6  1  0  0  0
M  END
> <minimizedAffinity>
-8.64076

$$$$
