CHEMBL1761941


 34 37  0  0  0  0  0  0  0  0999 V2000
  -11.9076   -1.8605  -12.8900 C   0  0  0  0  0  0  0  0  0  0  0  0
  -13.1085   -2.5149  -13.1439 C   0  0  0  0  0  0  0  0  0  0  0  0
  -14.1075   -1.8876  -13.8853 C   0  0  0  0  0  0  0  0  0  0  0  0
  -13.9630   -0.5755  -14.3418 C   0  0  0  0  0  0  0  0  0  0  0  0
  -12.8022    0.1209  -13.9719 C   0  0  0  0  0  0  0  0  0  0  0  0
  -11.7770   -0.5192  -13.2506 C   0  0  0  0  0  0  0  0  0  0  0  0
  -14.9170    0.0641  -15.1780 N   0  0  0  0  0  0  0  0  0  0  0  0
  -16.1235    0.6010  -14.7427 C   0  0  0  0  0  0  0  0  0  0  0  0
  -16.4698    0.6992  -13.5696 O   0  0  0  0  0  0  0  0  0  0  0  0
  -16.9495    0.9835  -15.7966 N   0  0  0  0  0  0  0  0  0  0  0  0
  -14.6782    0.1646  -16.1516 H   0  0  0  0  0  0  0  0  0  0  0  0
  -16.9065    0.3772  -16.6027 H   0  0  0  0  0  0  0  0  0  0  0  0
  -18.2242    1.5411  -15.5054 C   0  0  0  0  0  0  0  0  0  0  0  0
  -18.4191    2.9270  -15.4893 C   0  0  0  0  0  0  0  0  0  0  0  0
  -19.6358    3.4724  -15.0743 C   0  0  0  0  0  0  0  0  0  0  0  0
  -20.6783    2.6369  -14.6661 C   0  0  0  0  0  0  0  0  0  0  0  0
  -21.9591    3.2150  -14.1405 C   0  0  0  0  0  0  0  0  0  0  0  0
  -20.4964    1.2480  -14.7240 C   0  0  0  0  0  0  0  0  0  0  0  0
  -19.2840    0.7000  -15.1654 C   0  0  0  0  0  0  0  0  0  0  0  0
  -10.8432   -2.4996  -12.2813 O   0  0  0  0  0  0  0  0  0  0  0  0
  -11.2097   -7.5513  -11.6480 C   0  0  0  0  0  0  0  0  0  0  0  0
  -11.3710   -6.8893  -10.4168 C   0  0  0  0  0  0  0  0  0  0  0  0
  -11.3734   -5.5096  -10.3051 C   0  0  0  0  0  0  0  0  0  0  0  0
  -11.6420   -4.9847   -9.1062 N   0  0  0  0  0  0  0  0  0  0  0  0
  -11.7113   -3.6541   -9.0312 C   0  0  0  0  0  0  0  0  0  0  0  0
  -11.5043   -2.8044  -10.0374 N   0  0  0  0  0  0  0  0  0  0  0  0
  -11.1530   -3.3596  -11.2188 C   0  0  0  0  0  0  0  0  0  0  0  0
  -11.1061   -4.7423  -11.4379 C   0  0  0  0  0  0  0  0  0  0  0  0
  -10.8466   -5.3922  -12.6664 C   0  0  0  0  0  0  0  0  0  0  0  0
  -10.9244   -6.7898  -12.7879 C   0  0  0  0  0  0  0  0  0  0  0  0
  -12.5892   -9.4226  -12.1098 C   0  0  0  0  0  0  0  0  0  0  0  0
  -11.3067   -8.9213  -11.7278 O   0  0  0  0  0  0  0  0  0  0  0  0
  -10.7216   -7.1964  -14.0759 O   0  0  0  0  0  0  0  0  0  0  0  0
  -11.7943   -7.2005  -15.0048 C   0  0  0  0  0  0  0  0  0  0  0  0
 31 32  1  0  0  0
 32 21  1  0  0  0
 21 22  1  0  0  0
 21 30  2  0  0  0
 22 23  2  0  0  0
 23 24  1  0  0  0
 23 28  1  0  0  0
 24 25  2  0  0  0
 25 26  1  0  0  0
 26 27  2  0  0  0
 27 20  1  0  0  0
 27 28  1  0  0  0
 20  1  1  0  0  0
  1  2  1  0  0  0
  1  6  2  0  0  0
  2  3  2  0  0  0
  3  4  1  0  0  0
  4  7  1  0  0  0
  4  5  2  0  0  0
  7  8  1  0  0  0
  7 11  1  0  0  0
  8  9  2  0  0  0
  8 10  1  0  0  0
 10 13  1  0  0  0
 10 12  1  0  0  0
 13 14  1  0  0  0
 13 19  2  0  0  0
 14 15  2  0  0  0
 15 16  1  0  0  0
 16 17  1  0  0  0
 16 18  2  0  0  0
 18 19  1  0  0  0
  5  6  1  0  0  0
 28 29  2  0  0  0
 29 30  1  0  0  0
 30 33  1  0  0  0
 33 34  1  0  0  0
M  END
> <minimizedAffinity>
-8.23455

$$$$
