CHEMBL3590225


 36 40  0  0  0  0  0  0  0  0999 V2000
  -13.6474   -3.7660  -14.7959 C   0  0  0  0  0  0  0  0  0  0  0  0
  -13.6560   -2.4488  -14.2916 C   0  0  0  0  0  0  0  0  0  0  0  0
  -13.3074   -1.6255  -15.3465 C   0  0  0  0  0  0  0  0  0  0  0  0
  -13.1189   -2.4779  -16.4077 N   0  0  0  0  0  0  0  0  0  0  0  0
  -12.7150   -2.2005  -17.7679 C   0  0  0  0  0  0  0  0  0  0  0  0
  -13.3234   -3.7743  -16.0906 N   0  0  0  0  0  0  0  0  0  0  0  0
  -13.1889   -0.1731  -15.3553 C   0  0  0  0  0  0  0  0  0  0  0  0
  -11.9691    0.4681  -15.2046 C   0  0  0  0  0  0  0  0  0  0  0  0
  -11.8536    1.8131  -15.1061 N   0  0  0  0  0  0  0  0  0  0  0  0
  -13.0002    2.5268  -15.1620 C   0  0  0  0  0  0  0  0  0  0  0  0
  -12.8234    3.8725  -14.8825 N   0  0  0  0  0  0  0  0  0  0  0  0
  -14.2380    1.8827  -15.3392 C   0  0  0  0  0  0  0  0  0  0  0  0
  -14.3394    0.5200  -15.4300 N   0  0  0  0  0  0  0  0  0  0  0  0
  -11.8334    4.0970  -14.8851 H   0  0  0  0  0  0  0  0  0  0  0  0
  -13.3951    4.4909  -15.4547 H   0  0  0  0  0  0  0  0  0  0  0  0
  -15.4360    2.6409  -15.4806 N   0  0  0  0  0  0  0  0  0  0  0  0
  -15.4362    3.9299  -15.9254 N   0  0  0  0  0  0  0  0  0  0  0  0
  -16.6885    4.3426  -16.0378 N   0  0  0  0  0  0  0  0  0  0  0  0
  -17.5064    3.3172  -15.6669 C   0  0  0  0  0  0  0  0  0  0  0  0
  -18.9068    3.2527  -15.6137 C   0  0  0  0  0  0  0  0  0  0  0  0
  -19.5113    2.0627  -15.1934 C   0  0  0  0  0  0  0  0  0  0  0  0
  -18.7373    0.9630  -14.8247 C   0  0  0  0  0  0  0  0  0  0  0  0
  -17.3396    1.0154  -14.8642 C   0  0  0  0  0  0  0  0  0  0  0  0
  -16.7470    2.2101  -15.3028 C   0  0  0  0  0  0  0  0  0  0  0  0
  -13.7019   -4.9315   -9.8249 C   0  0  0  0  0  0  0  0  0  0  0  0
  -14.7613   -4.8943   -9.1913 O   0  0  0  0  0  0  0  0  0  0  0  0
  -13.6476   -4.6668  -11.1867 N   0  0  0  0  0  0  0  0  0  0  0  0
  -14.7955   -4.0586  -11.8461 C   0  0  0  0  0  0  0  0  0  0  0  0
  -15.1797   -4.8455  -13.0930 C   0  0  0  0  0  0  0  0  0  0  0  0
  -13.9826   -5.0292  -14.0452 C   0  0  0  0  0  0  0  0  0  0  0  0
  -12.7955   -5.6283  -13.2728 C   0  0  0  0  0  0  0  0  0  0  0  0
  -12.4555   -4.8212  -12.0205 C   0  0  0  0  0  0  0  0  0  0  0  0
  -12.3903   -5.2615   -9.0946 C   0  0  0  0  0  0  0  0  0  0  0  0
  -11.7010   -4.6073   -6.8579 C   0  0  0  0  0  0  0  0  0  0  0  0
  -11.9656   -4.1405   -8.2215 N   0  0  0  0  0  0  0  0  0  0  0  0
  -10.7787   -3.4926   -8.7739 C   0  0  0  0  0  0  0  0  0  0  0  0
 34 35  1  0  0  0
 35 36  1  0  0  0
 35 33  1  0  0  0
 33 25  1  0  0  0
 25 26  2  0  0  0
 25 27  1  0  0  0
 27 28  1  0  0  0
 27 32  1  0  0  0
 28 29  1  0  0  0
 29 30  1  0  0  0
 30  1  1  0  0  0
 30 31  1  0  0  0
  1  2  1  0  0  0
  1  6  2  0  0  0
  2  3  2  0  0  0
  3  7  1  0  0  0
  3  4  1  0  0  0
  7  8  1  0  0  0
  7 13  2  0  0  0
  8  9  2  0  0  0
  9 10  1  0  0  0
 10 11  1  0  0  0
 10 12  2  0  0  0
 11 14  1  0  0  0
 11 15  1  0  0  0
 12 16  1  0  0  0
 12 13  1  0  0  0
 16 17  1  0  0  0
 16 24  1  0  0  0
 17 18  2  0  0  0
 18 19  1  0  0  0
 19 20  1  0  0  0
 19 24  2  0  0  0
 20 21  2  0  0  0
 21 22  1  0  0  0
 22 23  2  0  0  0
 23 24  1  0  0  0
  4  5  1  0  0  0
  4  6  1  0  0  0
 31 32  1  0  0  0
M  END
> <minimizedAffinity>
-7.89521

$$$$
