CHEMBL3921197


 42 47  0  0  0  0  0  0  0  0999 V2000
  -28.4815   -3.5655   -8.2484 C   0  0  0  0  0  0  0  0  0  0  0  0
  -29.8653   -3.6395   -8.4144 C   0  0  0  0  0  0  0  0  0  0  0  0
  -30.5661   -4.7165   -7.9061 C   0  0  0  0  0  0  0  0  0  0  0  0
  -29.9205   -5.8121   -7.3742 C   0  0  0  0  0  0  0  0  0  0  0  0
  -30.7153   -6.6737   -6.7257 N   0  0  0  0  0  0  0  0  0  0  0  0
  -30.1746   -7.8522   -6.3868 C   0  0  0  0  0  0  0  0  0  0  0  0
  -28.9069   -8.2201   -6.7902 C   0  0  0  0  0  0  0  0  0  0  0  0
  -28.0366   -7.2706   -7.2941 N   0  0  0  0  0  0  0  0  0  0  0  0
  -28.5357   -5.9853   -7.5327 C   0  0  0  0  0  0  0  0  0  0  0  0
  -27.8166   -4.7785   -7.9097 C   0  0  0  0  0  0  0  0  0  0  0  0
  -28.7083   -9.6629   -6.9941 C   0  0  0  0  0  0  0  0  0  0  0  0
  -29.5292  -10.8078   -6.9010 C   0  0  0  0  0  0  0  0  0  0  0  0
  -28.8975  -11.9462   -7.2453 N   0  0  0  0  0  0  0  0  0  0  0  0
  -27.6501  -11.5455   -7.5668 N   0  0  0  0  0  0  0  0  0  0  0  0
  -27.5395  -10.1736   -7.5505 C   0  0  0  0  0  0  0  0  0  0  0  0
  -26.5142  -12.4659   -7.5234 C   0  0  0  0  0  0  0  0  0  0  0  0
  -25.0820  -11.9074   -7.7163 C   0  0  0  0  0  0  0  0  0  0  0  0
  -24.1972  -12.0857   -6.5233 N   0  0  0  0  0  0  0  0  0  0  0  0
  -24.8209  -11.5687   -5.2784 C   0  0  0  0  0  0  0  0  0  0  0  0
  -24.7748  -10.0299   -5.0991 C   0  0  0  0  0  0  0  0  0  0  0  0
  -23.4256   -9.4566   -5.2390 N   0  0  0  0  0  0  0  0  0  0  0  0
  -22.8229   -9.9292   -6.4959 C   0  0  0  0  0  0  0  0  0  0  0  0
  -22.8574  -11.4680   -6.6469 C   0  0  0  0  0  0  0  0  0  0  0  0
  -22.8528   -9.7904   -4.4633 H   0  0  0  0  0  0  0  0  0  0  0  0
  -27.9693   -2.2115   -8.1732 N   0  0  0  0  0  0  0  0  0  0  0  0
  -28.8003    0.8742   -6.2268 C   0  0  0  0  0  0  0  0  0  0  0  0
  -28.6018    0.4372   -4.9219 C   0  0  0  0  0  0  0  0  0  0  0  0
  -28.0912   -0.8416   -4.6911 C   0  0  0  0  0  0  0  0  0  0  0  0
  -27.8140   -1.6930   -5.7668 C   0  0  0  0  0  0  0  0  0  0  0  0
  -28.0005   -1.2933   -7.0915 C   0  0  0  0  0  0  0  0  0  0  0  0
  -28.4570    0.0267   -7.3024 C   0  0  0  0  0  0  0  0  0  0  0  0
  -30.7692    2.1105   -6.8135 C   0  0  0  0  0  0  0  0  0  0  0  0
  -29.3649    2.0825   -6.5551 O   0  0  0  0  0  0  0  0  0  0  0  0
  -27.8964   -1.3978   -3.4565 O   0  0  0  0  0  0  0  0  0  0  0  0
  -28.4475   -2.6958   -3.2753 C   0  0  0  0  0  0  0  0  0  0  0  0
  -28.2120   -1.5858   -9.5354 C   0  0  0  0  0  0  0  0  0  0  0  0
  -27.2293   -1.6234  -10.6995 C   0  0  0  0  0  0  0  0  0  0  0  0
  -27.4446   -1.5449  -12.0609 C   0  0  0  0  0  0  0  0  0  0  0  0
  -25.9451   -1.5630  -12.9083 S   0  0  0  0  0  0  0  0  0  0  0  0
  -25.1034   -1.6471  -11.4155 C   0  0  0  0  0  0  0  0  0  0  0  0
  -23.6120   -1.7015  -11.3769 C   0  0  0  0  0  0  0  0  0  0  0  0
  -25.8723   -1.6723  -10.3489 N   0  0  0  0  0  0  0  0  0  0  0  0
 32 33  1  0  0  0
 33 26  1  0  0  0
 26 27  1  0  0  0
 26 31  2  0  0  0
 27 28  2  0  0  0
 28 34  1  0  0  0
 28 29  1  0  0  0
 34 35  1  0  0  0
 29 30  2  0  0  0
 30 25  1  0  0  0
 30 31  1  0  0  0
 25 36  1  0  0  0
 25  1  1  0  0  0
 36 37  1  0  0  0
 37 38  2  0  0  0
 37 42  1  0  0  0
 38 39  1  0  0  0
 39 40  1  0  0  0
 40 41  1  0  0  0
 40 42  2  0  0  0
  1  2  1  0  0  0
  1 10  2  0  0  0
  2  3  2  0  0  0
  3  4  1  0  0  0
  4  5  1  0  0  0
  4  9  2  0  0  0
  5  6  2  0  0  0
  6  7  1  0  0  0
  7 11  1  0  0  0
  7  8  2  0  0  0
 11 12  1  0  0  0
 11 15  2  0  0  0
 12 13  2  0  0  0
 13 14  1  0  0  0
 14 16  1  0  0  0
 14 15  1  0  0  0
 16 17  1  0  0  0
 17 18  1  0  0  0
 18 19  1  0  0  0
 18 23  1  0  0  0
 19 20  1  0  0  0
 20 21  1  0  0  0
 21 22  1  0  0  0
 21 24  1  0  0  0
 22 23  1  0  0  0
  8  9  1  0  0  0
  9 10  1  0  0  0
M  END
> <minimizedAffinity>
-7.61093

$$$$
