CHEMBL236206


 28 30  0  0  0  0  0  0  0  0999 V2000
  -25.3760   -1.5524  -10.0926 O   0  0  0  0  0  0  0  0  0  0  0  0
  -26.3856   -1.6962  -10.7643 C   0  0  0  0  0  0  0  0  0  0  0  0
  -27.6422   -1.9648  -10.2321 N   0  0  0  0  0  0  0  0  0  0  0  0
  -28.4261   -1.9692  -10.8703 H   0  0  0  0  0  0  0  0  0  0  0  0
  -27.9511   -2.1870   -8.8637 C   0  0  0  0  0  0  0  0  0  0  0  0
  -28.5315   -3.3626   -8.3861 C   0  0  0  0  0  0  0  0  0  0  0  0
  -28.8521   -3.5105   -7.0336 C   0  0  0  0  0  0  0  0  0  0  0  0
  -28.5800   -2.4890   -6.1289 C   0  0  0  0  0  0  0  0  0  0  0  0
  -27.9415   -1.3324   -6.5667 C   0  0  0  0  0  0  0  0  0  0  0  0
  -27.6710   -1.1689   -7.9386 C   0  0  0  0  0  0  0  0  0  0  0  0
  -27.5744   -0.2881   -5.7701 O   0  0  0  0  0  0  0  0  0  0  0  0
  -28.5143    0.7499   -5.5023 C   0  0  0  0  0  0  0  0  0  0  0  0
  -29.7745    0.3200   -5.2831 F   0  0  0  0  0  0  0  0  0  0  0  0
  -28.1124    1.4119   -4.3930 F   0  0  0  0  0  0  0  0  0  0  0  0
  -28.5249    1.6245   -6.5314 F   0  0  0  0  0  0  0  0  0  0  0  0
  -26.3390   -1.6038  -12.2148 C   0  0  0  0  0  0  0  0  0  0  0  0
  -27.2790   -1.9951  -13.1609 C   0  0  0  0  0  0  0  0  0  0  0  0
  -26.6878   -1.7542  -14.4089 C   0  0  0  0  0  0  0  0  0  0  0  0
  -25.4708   -1.2331  -14.2942 N   0  0  0  0  0  0  0  0  0  0  0  0
  -25.2608   -1.1522  -12.9594 N   0  0  0  0  0  0  0  0  0  0  0  0
  -23.9533   -0.6730  -12.5188 C   0  0  0  0  0  0  0  0  0  0  0  0
  -22.8957   -0.7086  -13.6299 C   0  0  0  0  0  0  0  0  0  0  0  0
  -22.2341    0.6037  -14.0039 C   0  0  0  0  0  0  0  0  0  0  0  0
  -21.0177    0.7087  -14.6835 C   0  0  0  0  0  0  0  0  0  0  0  0
  -20.5254    1.9740  -14.9870 C   0  0  0  0  0  0  0  0  0  0  0  0
  -21.1506    3.1270  -14.6694 N   0  0  0  0  0  0  0  0  0  0  0  0
  -22.3258    3.0111  -14.0204 C   0  0  0  0  0  0  0  0  0  0  0  0
  -22.8966    1.7947  -13.6734 C   0  0  0  0  0  0  0  0  0  0  0  0
  1  2  2  0  0  0
  2  3  1  0  0  0
  2 16  1  0  0  0
  3  5  1  0  0  0
  3  4  1  0  0  0
  5  6  1  0  0  0
  5 10  2  0  0  0
  6  7  2  0  0  0
  7  8  1  0  0  0
  8  9  2  0  0  0
  9 11  1  0  0  0
  9 10  1  0  0  0
 11 12  1  0  0  0
 12 13  1  0  0  0
 12 14  1  0  0  0
 12 15  1  0  0  0
 16 17  2  0  0  0
 16 20  1  0  0  0
 17 18  1  0  0  0
 18 19  2  0  0  0
 19 20  1  0  0  0
 20 21  1  0  0  0
 21 22  1  0  0  0
 22 23  1  0  0  0
 23 24  1  0  0  0
 23 28  2  0  0  0
 24 25  2  0  0  0
 25 26  1  0  0  0
 26 27  2  0  0  0
 27 28  1  0  0  0
M  END
> <minimizedAffinity>
-10.18187

$$$$
