CHEMBL192318


 42 45  0  0  0  0  0  0  0  0999 V2000
  -12.5735   -2.9509  -12.4855 C   0  0  0  0  0  0  0  0  0  0  0  0
  -11.2849   -2.7469  -12.5726 N   0  0  0  0  0  0  0  0  0  0  0  0
  -10.7964   -1.6686  -13.2527 C   0  0  0  0  0  0  0  0  0  0  0  0
  -11.4887   -0.7689  -13.8609 N   0  0  0  0  0  0  0  0  0  0  0  0
  -12.8102   -0.9643  -13.7951 N   0  0  0  0  0  0  0  0  0  0  0  0
  -13.7191   -0.1515  -14.3904 C   0  0  0  0  0  0  0  0  0  0  0  0
  -14.9748   -0.6680  -14.1893 C   0  0  0  0  0  0  0  0  0  0  0  0
  -14.8218   -1.8682  -13.3916 C   0  0  0  0  0  0  0  0  0  0  0  0
  -13.4428   -2.0021  -13.1571 C   0  0  0  0  0  0  0  0  0  0  0  0
  -16.1242   -0.1266  -14.7312 N   0  0  0  0  0  0  0  0  0  0  0  0
  -16.9978    0.7334  -14.1063 C   0  0  0  0  0  0  0  0  0  0  0  0
  -17.0238    1.0746  -12.9371 O   0  0  0  0  0  0  0  0  0  0  0  0
  -16.4445   -0.4707  -15.6228 H   0  0  0  0  0  0  0  0  0  0  0  0
  -17.9579    1.0784  -15.0186 O   0  0  0  0  0  0  0  0  0  0  0  0
  -19.1711    1.6007  -14.4637 C   0  0  0  0  0  0  0  0  0  0  0  0
  -20.4269    0.8483  -14.8913 C   0  0  0  0  0  0  0  0  0  0  0  0
  -21.5701    1.0382  -13.8687 C   0  0  0  0  0  0  0  0  0  0  0  0
  -22.3537   -0.1839  -13.6013 N   0  0  0  0  0  0  0  0  0  0  0  0
  -22.5458   -0.3914  -12.1569 C   0  0  0  0  0  0  0  0  0  0  0  0
  -23.3291   -1.6702  -11.8612 C   0  0  0  0  0  0  0  0  0  0  0  0
  -24.6686   -1.6816  -12.5821 C   0  0  0  0  0  0  0  0  0  0  0  0
  -24.4644   -1.4154  -14.0681 C   0  0  0  0  0  0  0  0  0  0  0  0
  -23.6541   -0.1353  -14.2973 C   0  0  0  0  0  0  0  0  0  0  0  0
  -15.9461   -2.7619  -12.8919 C   0  0  0  0  0  0  0  0  0  0  0  0
  -15.9965   -4.1088  -13.6235 C   0  0  0  0  0  0  0  0  0  0  0  0
  -15.9195   -2.9909  -11.3789 C   0  0  0  0  0  0  0  0  0  0  0  0
  -13.0092   -4.0371  -11.7524 N   0  0  0  0  0  0  0  0  0  0  0  0
  -13.4183   -3.8749  -10.8428 H   0  0  0  0  0  0  0  0  0  0  0  0
  -12.8272   -7.1615  -13.8204 C   0  0  0  0  0  0  0  0  0  0  0  0
  -12.9111   -5.8028  -13.4684 C   0  0  0  0  0  0  0  0  0  0  0  0
  -12.9118   -5.3961  -12.1262 C   0  0  0  0  0  0  0  0  0  0  0  0
  -12.7709   -6.3961  -11.1496 C   0  0  0  0  0  0  0  0  0  0  0  0
  -12.7441   -6.0530   -9.8531 F   0  0  0  0  0  0  0  0  0  0  0  0
  -12.6621   -7.7467  -11.4828 C   0  0  0  0  0  0  0  0  0  0  0  0
  -12.6967   -8.1212  -12.8197 C   0  0  0  0  0  0  0  0  0  0  0  0
  -12.6112   -9.4249  -13.1244 F   0  0  0  0  0  0  0  0  0  0  0  0
  -14.1374   -7.3690  -15.8524 N   0  0  0  0  0  0  0  0  0  0  0  0
  -12.9050   -7.5205  -15.2561 C   0  0  0  0  0  0  0  0  0  0  0  0
  -11.9029   -7.9595  -15.8126 O   0  0  0  0  0  0  0  0  0  0  0  0
  -14.8170   -6.7061  -15.4919 H   0  0  0  0  0  0  0  0  0  0  0  0
  -13.8212   -6.3151  -17.8681 C   0  0  0  0  0  0  0  0  0  0  0  0
  -14.1611   -7.5566  -17.2538 O   0  0  0  0  0  0  0  0  0  0  0  0
 41 42  1  0  0  0
 42 37  1  0  0  0
 37 38  1  0  0  0
 37 40  1  0  0  0
 38 39  2  0  0  0
 38 29  1  0  0  0
 29 30  1  0  0  0
 29 35  2  0  0  0
 30 31  2  0  0  0
 31 27  1  0  0  0
 31 32  1  0  0  0
 27  1  1  0  0  0
 27 28  1  0  0  0
  1  2  2  0  0  0
  1  9  1  0  0  0
  2  3  1  0  0  0
  3  4  2  0  0  0
  4  5  1  0  0  0
  5  6  1  0  0  0
  5  9  1  0  0  0
  6  7  2  0  0  0
  7 10  1  0  0  0
  7  8  1  0  0  0
 10 11  1  0  0  0
 10 13  1  0  0  0
 11 12  2  0  0  0
 11 14  1  0  0  0
 14 15  1  0  0  0
 15 16  1  0  0  0
 16 17  1  0  0  0
 17 18  1  0  0  0
 18 19  1  0  0  0
 18 23  1  0  0  0
 19 20  1  0  0  0
 20 21  1  0  0  0
 21 22  1  0  0  0
 22 23  1  0  0  0
  8 24  1  0  0  0
  8  9  2  0  0  0
 24 25  1  0  0  0
 24 26  1  0  0  0
 32 33  1  0  0  0
 32 34  2  0  0  0
 34 35  1  0  0  0
 35 36  1  0  0  0
M  END
> <minimizedAffinity>
-8.64335

$$$$
