CHEMBL2448133


 36 41  0  0  0  0  0  0  0  0999 V2000
  -29.0948   -4.7680   -4.8362 C   0  0  0  0  0  0  0  0  0  0  0  0
  -30.0552   -4.8090   -5.8484 C   0  0  0  0  0  0  0  0  0  0  0  0
  -30.1312   -5.8788   -6.7363 C   0  0  0  0  0  0  0  0  0  0  0  0
  -29.1973   -6.9131   -6.6065 C   0  0  0  0  0  0  0  0  0  0  0  0
  -28.2816   -6.9174   -5.5306 C   0  0  0  0  0  0  0  0  0  0  0  0
  -28.2399   -5.8526   -4.6315 C   0  0  0  0  0  0  0  0  0  0  0  0
  -27.6721   -8.1272   -5.6838 C   0  0  0  0  0  0  0  0  0  0  0  0
  -27.0370   -8.8959   -4.6841 C   0  0  0  0  0  0  0  0  0  0  0  0
  -27.0313  -10.3321   -4.9408 C   0  0  0  0  0  0  0  0  0  0  0  0
  -27.3885  -10.8294   -6.1886 C   0  0  0  0  0  0  0  0  0  0  0  0
  -27.1334   -9.8427   -7.1726 C   0  0  0  0  0  0  0  0  0  0  0  0
  -27.8021   -8.6683   -6.9234 C   0  0  0  0  0  0  0  0  0  0  0  0
  -29.0246   -8.1096   -7.3356 N   0  0  0  0  0  0  0  0  0  0  0  0
  -26.7366  -10.5402   -8.4083 C   0  0  0  0  0  0  0  0  0  0  0  0
  -27.8077  -11.5856   -8.3664 C   0  0  0  0  0  0  0  0  0  0  0  0
  -28.5589  -11.8399   -9.5074 C   0  0  0  0  0  0  0  0  0  0  0  0
  -29.8675  -12.2260   -9.3111 C   0  0  0  0  0  0  0  0  0  0  0  0
  -30.3524  -12.4093   -7.9976 C   0  0  0  0  0  0  0  0  0  0  0  0
  -29.5425  -12.1979   -6.8330 C   0  0  0  0  0  0  0  0  0  0  0  0
  -28.2294  -11.7544   -6.9910 C   0  0  0  0  0  0  0  0  0  0  0  0
  -25.9460  -10.8436   -4.1322 C   0  0  0  0  0  0  0  0  0  0  0  0
  -25.4181  -11.9535   -4.0785 O   0  0  0  0  0  0  0  0  0  0  0  0
  -25.3755   -9.7217   -3.5068 N   0  0  0  0  0  0  0  0  0  0  0  0
  -26.0151   -8.4349   -3.7589 C   0  0  0  0  0  0  0  0  0  0  0  0
  -24.3945   -9.7490   -3.2466 H   0  0  0  0  0  0  0  0  0  0  0  0
  -28.8929   -3.5266   -4.0242 C   0  0  0  0  0  0  0  0  0  0  0  0
  -29.6527   -2.5077   -4.6671 O   0  0  0  0  0  0  0  0  0  0  0  0
  -28.8704   -1.5748   -5.4078 C   0  0  0  0  0  0  0  0  0  0  0  0
  -27.4770   -1.4512   -4.7955 C   0  0  0  0  0  0  0  0  0  0  0  0
  -28.6528    0.9351   -4.9880 C   0  0  0  0  0  0  0  0  0  0  0  0
  -29.5823   -0.2144   -5.3573 C   0  0  0  0  0  0  0  0  0  0  0  0
  -30.1625   -8.9210   -7.7986 C   0  0  0  0  0  0  0  0  0  0  0  0
  -31.3427   -9.2111   -6.8675 C   0  0  0  0  0  0  0  0  0  0  0  0
  -32.5976   -8.4249   -7.2575 C   0  0  0  0  0  0  0  0  0  0  0  0
  -33.4936   -9.2779   -7.9622 O   0  0  0  0  0  0  0  0  0  0  0  0
  -33.0640   -9.5439   -8.7935 H   0  0  0  0  0  0  0  0  0  0  0  0
 30 31  1  0  0  0
 31 28  1  0  0  0
 28 29  1  0  0  0
 28 27  1  0  0  0
 27 26  1  0  0  0
 26  1  1  0  0  0
  1  2  1  0  0  0
  1  6  2  0  0  0
  2  3  2  0  0  0
  3  4  1  0  0  0
  4  5  2  0  0  0
  4 13  1  0  0  0
  5  6  1  0  0  0
  5  7  1  0  0  0
  7  8  1  0  0  0
  7 12  2  0  0  0
  8  9  2  0  0  0
  8 24  1  0  0  0
  9 10  1  0  0  0
  9 21  1  0  0  0
 10 11  2  0  0  0
 10 20  1  0  0  0
 11 12  1  0  0  0
 11 14  1  0  0  0
 12 13  1  0  0  0
 13 32  1  0  0  0
 32 33  1  0  0  0
 33 34  1  0  0  0
 34 35  1  0  0  0
 35 36  1  0  0  0
 14 15  1  0  0  0
 15 16  1  0  0  0
 15 20  2  0  0  0
 16 17  2  0  0  0
 17 18  1  0  0  0
 18 19  2  0  0  0
 19 20  1  0  0  0
 21 22  2  0  0  0
 21 23  1  0  0  0
 23 24  1  0  0  0
 23 25  1  0  0  0
M  END
> <minimizedAffinity>
-7.14426

$$$$
