CHEMBL2113171


 34 36  0  0  0  0  0  0  0  0999 V2000
  -28.0456   -1.6641   -5.3210 C   0  0  0  0  0  0  0  0  0  0  0  0
  -28.8594   -2.2428   -4.3185 C   0  0  0  0  0  0  0  0  0  0  0  0
  -29.5958   -3.4081   -4.4968 C   0  0  0  0  0  0  0  0  0  0  0  0
  -30.3651   -3.8588   -3.4999 N   0  0  0  0  0  0  0  0  0  0  0  0
  -31.0461   -4.9831   -3.7271 C   0  0  0  0  0  0  0  0  0  0  0  0
  -31.0220   -5.7026   -4.8572 N   0  0  0  0  0  0  0  0  0  0  0  0
  -30.2583   -5.2363   -5.8651 C   0  0  0  0  0  0  0  0  0  0  0  0
  -29.5079   -4.0543   -5.7300 C   0  0  0  0  0  0  0  0  0  0  0  0
  -28.7052   -3.4886   -6.7417 C   0  0  0  0  0  0  0  0  0  0  0  0
  -27.9577   -2.3142   -6.5596 C   0  0  0  0  0  0  0  0  0  0  0  0
  -30.2704   -5.9287   -7.1083 N   0  0  0  0  0  0  0  0  0  0  0  0
  -29.9186   -5.3622   -7.8710 H   0  0  0  0  0  0  0  0  0  0  0  0
  -29.8921   -7.2668   -7.2592 C   0  0  0  0  0  0  0  0  0  0  0  0
  -28.6495   -7.7429   -7.2078 C   0  0  0  0  0  0  0  0  0  0  0  0
  -28.2931   -9.1312   -7.5188 C   0  0  0  0  0  0  0  0  0  0  0  0
  -27.1096   -9.4416   -7.4711 O   0  0  0  0  0  0  0  0  0  0  0  0
  -29.3766  -10.0752   -7.9030 C   0  0  0  0  0  0  0  0  0  0  0  0
  -30.6474   -9.6359   -7.8415 C   0  0  0  0  0  0  0  0  0  0  0  0
  -31.9759  -10.6794   -8.2427 Cl  0  0  0  0  0  0  0  0  0  0  0  0
  -31.0101   -8.2427   -7.4569 C   0  0  0  0  0  0  0  0  0  0  0  0
  -32.1733   -7.8621   -7.3262 O   0  0  0  0  0  0  0  0  0  0  0  0
  -29.1205  -11.3654   -8.3524 O   0  0  0  0  0  0  0  0  0  0  0  0
  -28.8177  -11.6170   -9.7349 C   0  0  0  0  0  0  0  0  0  0  0  0
  -29.0874  -10.3989  -10.6159 C   0  0  0  0  0  0  0  0  0  0  0  0
  -29.1021  -10.7845  -11.9235 F   0  0  0  0  0  0  0  0  0  0  0  0
  -27.3373  -11.9749   -9.8119 C   0  0  0  0  0  0  0  0  0  0  0  0
  -26.6290  -10.8957  -10.2389 F   0  0  0  0  0  0  0  0  0  0  0  0
  -27.3578   -1.9790   -7.7366 O   0  0  0  0  0  0  0  0  0  0  0  0
  -27.8763   -2.3584   -8.9965 C   0  0  0  0  0  0  0  0  0  0  0  0
  -27.5092   -0.4836   -4.8704 O   0  0  0  0  0  0  0  0  0  0  0  0
  -28.2993    0.6786   -4.9936 C   0  0  0  0  0  0  0  0  0  0  0  0
  -28.3218    1.2792   -6.3905 C   0  0  0  0  0  0  0  0  0  0  0  0
  -30.5654    1.1439   -5.6076 C   0  0  0  0  0  0  0  0  0  0  0  0
  -29.7111    1.4480   -6.6916 O   0  0  0  0  0  0  0  0  0  0  0  0
 33 34  1  0  0  0
 34 32  1  0  0  0
 32 31  1  0  0  0
 31 30  1  0  0  0
 30  1  1  0  0  0
  1  2  1  0  0  0
  1 10  2  0  0  0
  2  3  2  0  0  0
  3  4  1  0  0  0
  3  8  1  0  0  0
  4  5  2  0  0  0
  5  6  1  0  0  0
  6  7  2  0  0  0
  7 11  1  0  0  0
  7  8  1  0  0  0
 11 13  1  0  0  0
 11 12  1  0  0  0
 13 14  2  0  0  0
 13 20  1  0  0  0
 14 15  1  0  0  0
 15 16  2  0  0  0
 15 17  1  0  0  0
 17 22  1  0  0  0
 17 18  2  0  0  0
 22 23  1  0  0  0
 23 24  1  0  0  0
 23 26  1  0  0  0
 24 25  1  0  0  0
 26 27  1  0  0  0
 18 19  1  0  0  0
 18 20  1  0  0  0
 20 21  2  0  0  0
  8  9  2  0  0  0
  9 10  1  0  0  0
 10 28  1  0  0  0
 28 29  1  0  0  0
M  END
> <minimizedAffinity>
-7.60310

$$$$
