CHEMBL477772


 34 37  0  0  0  0  0  0  0  0999 V2000
  -28.8169   -7.3195   -7.5058 C   0  0  0  0  0  0  0  0  0  0  0  0
  -29.8064   -7.9416   -8.1596 N   0  0  0  0  0  0  0  0  0  0  0  0
  -30.1490   -9.1535   -7.7220 C   0  0  0  0  0  0  0  0  0  0  0  0
  -29.5684   -9.7506   -6.6364 C   0  0  0  0  0  0  0  0  0  0  0  0
  -28.5760   -9.0486   -5.9774 C   0  0  0  0  0  0  0  0  0  0  0  0
  -28.1913   -7.8359   -6.4350 N   0  0  0  0  0  0  0  0  0  0  0  0
  -28.3860   -6.0800   -7.9968 N   0  0  0  0  0  0  0  0  0  0  0  0
  -27.4679   -6.2125   -8.4046 H   0  0  0  0  0  0  0  0  0  0  0  0
  -28.9939   -1.0693   -5.2377 C   0  0  0  0  0  0  0  0  0  0  0  0
  -28.8831   -2.4049   -5.9160 C   0  0  0  0  0  0  0  0  0  0  0  0
  -28.5729   -2.4212   -7.2803 C   0  0  0  0  0  0  0  0  0  0  0  0
  -28.4253   -3.6248   -7.9668 C   0  0  0  0  0  0  0  0  0  0  0  0
  -28.5547   -4.8587   -7.3180 C   0  0  0  0  0  0  0  0  0  0  0  0
  -28.9064   -4.8565   -5.9724 C   0  0  0  0  0  0  0  0  0  0  0  0
  -29.0624   -3.6448   -5.2738 C   0  0  0  0  0  0  0  0  0  0  0  0
  -29.5186   -3.7743   -3.5646 S   0  0  0  0  0  0  0  0  0  0  0  0
  -29.0806   -5.3648   -3.2815 N   0  0  0  0  0  0  0  0  0  0  0  0
  -28.6672   -2.9406   -2.7675 O   0  0  0  0  0  0  0  0  0  0  0  0
  -30.9689   -3.7351   -3.4296 O   0  0  0  0  0  0  0  0  0  0  0  0
  -28.3440   -5.4371   -2.5831 H   0  0  0  0  0  0  0  0  0  0  0  0
  -29.8863   -5.9740   -3.1712 H   0  0  0  0  0  0  0  0  0  0  0  0
  -27.9612   -9.5895   -4.8264 N   0  0  0  0  0  0  0  0  0  0  0  0
  -28.7336   -9.6564   -3.5845 C   0  0  0  0  0  0  0  0  0  0  0  0
  -26.6280  -10.0864   -4.7273 C   0  0  0  0  0  0  0  0  0  0  0  0
  -26.0830  -10.3506   -3.4179 C   0  0  0  0  0  0  0  0  0  0  0  0
  -24.7523  -10.7333   -3.1565 C   0  0  0  0  0  0  0  0  0  0  0  0
  -24.0263  -10.8509   -4.3329 C   0  0  0  0  0  0  0  0  0  0  0  0
  -22.6940  -11.1736   -4.4246 C   0  0  0  0  0  0  0  0  0  0  0  0
  -21.6696  -11.4750   -3.3961 C   0  0  0  0  0  0  0  0  0  0  0  0
  -22.4420  -11.1623   -5.7765 N   0  0  0  0  0  0  0  0  0  0  0  0
  -21.1924  -11.4486   -6.4437 C   0  0  0  0  0  0  0  0  0  0  0  0
  -23.5097  -10.8433   -6.5386 N   0  0  0  0  0  0  0  0  0  0  0  0
  -24.5081  -10.6391   -5.6690 C   0  0  0  0  0  0  0  0  0  0  0  0
  -25.8367  -10.2525   -5.8970 C   0  0  0  0  0  0  0  0  0  0  0  0
  9 10  1  0  0  0
 10 11  1  0  0  0
 10 15  2  0  0  0
 11 12  2  0  0  0
 12 13  1  0  0  0
 13  7  1  0  0  0
 13 14  2  0  0  0
  7  1  1  0  0  0
  7  8  1  0  0  0
  1  2  1  0  0  0
  1  6  2  0  0  0
  2  3  2  0  0  0
  3  4  1  0  0  0
  4  5  2  0  0  0
  5 22  1  0  0  0
  5  6  1  0  0  0
 22 23  1  0  0  0
 22 24  1  0  0  0
 24 25  1  0  0  0
 24 34  2  0  0  0
 25 26  2  0  0  0
 26 27  1  0  0  0
 27 28  2  0  0  0
 27 33  1  0  0  0
 28 29  1  0  0  0
 28 30  1  0  0  0
 30 31  1  0  0  0
 30 32  1  0  0  0
 32 33  2  0  0  0
 33 34  1  0  0  0
 14 15  1  0  0  0
 15 16  1  0  0  0
 16 17  1  0  0  0
 16 18  2  0  0  0
 16 19  2  0  0  0
 17 20  1  0  0  0
 17 21  1  0  0  0
M  END
> <minimizedAffinity>
-8.88369

$$$$
