CHEMBL4515066


 36 40  0  0  0  0  0  0  0  0999 V2000
  -27.8781   -1.6241   -9.3155 C   0  0  0  0  0  0  0  0  0  0  0  0
  -27.8391   -0.7092   -8.2642 C   0  0  0  0  0  0  0  0  0  0  0  0
  -27.7975   -1.1671   -6.9359 C   0  0  0  0  0  0  0  0  0  0  0  0
  -27.8727   -2.5368   -6.6435 C   0  0  0  0  0  0  0  0  0  0  0  0
  -27.9408   -3.4337   -7.7166 C   0  0  0  0  0  0  0  0  0  0  0  0
  -27.9533   -2.9864   -9.0341 C   0  0  0  0  0  0  0  0  0  0  0  0
  -27.8645   -1.1602  -10.6461 N   0  0  0  0  0  0  0  0  0  0  0  0
  -28.6730   -0.6351  -10.9584 H   0  0  0  0  0  0  0  0  0  0  0  0
  -26.9765   -1.5518  -11.6291 C   0  0  0  0  0  0  0  0  0  0  0  0
  -27.5734   -1.9660  -13.1344 S   0  0  0  0  0  0  0  0  0  0  0  0
  -25.6533   -1.4035  -11.2807 N   0  0  0  0  0  0  0  0  0  0  0  0
  -25.4407   -1.6828  -10.3303 H   0  0  0  0  0  0  0  0  0  0  0  0
  -22.5010   -0.0717  -13.7405 C   0  0  0  0  0  0  0  0  0  0  0  0
  -22.7070   -1.4286  -13.5114 C   0  0  0  0  0  0  0  0  0  0  0  0
  -23.7437   -1.8506  -12.6697 C   0  0  0  0  0  0  0  0  0  0  0  0
  -24.5645   -0.9193  -12.0298 C   0  0  0  0  0  0  0  0  0  0  0  0
  -24.3528    0.4409  -12.2551 C   0  0  0  0  0  0  0  0  0  0  0  0
  -23.3290    0.8599  -13.1080 C   0  0  0  0  0  0  0  0  0  0  0  0
  -20.7782    1.5414  -14.0116 C   0  0  0  0  0  0  0  0  0  0  0  0
  -21.5442    0.4729  -14.5533 O   0  0  0  0  0  0  0  0  0  0  0  0
  -27.8098   -3.0109   -5.3176 N   0  0  0  0  0  0  0  0  0  0  0  0
  -27.0371   -2.6448   -4.7765 H   0  0  0  0  0  0  0  0  0  0  0  0
  -28.9272   -3.2591   -4.4914 C   0  0  0  0  0  0  0  0  0  0  0  0
  -29.2590   -2.3472   -3.5430 N   0  0  0  0  0  0  0  0  0  0  0  0
  -30.3353   -2.5488   -2.7766 C   0  0  0  0  0  0  0  0  0  0  0  0
  -31.1762   -3.5746   -2.8288 N   0  0  0  0  0  0  0  0  0  0  0  0
  -30.8328   -4.4727   -3.7660 C   0  0  0  0  0  0  0  0  0  0  0  0
  -31.8041   -5.8513   -4.0144 S   0  0  0  0  0  0  0  0  0  0  0  0
  -30.7814   -6.4158   -5.2439 C   0  0  0  0  0  0  0  0  0  0  0  0
  -29.6969   -5.5826   -5.4609 C   0  0  0  0  0  0  0  0  0  0  0  0
  -29.7300   -4.4163   -4.6107 C   0  0  0  0  0  0  0  0  0  0  0  0
  -28.6882   -5.9405   -6.5129 C   0  0  0  0  0  0  0  0  0  0  0  0
  -28.8162   -7.4284   -6.9140 C   0  0  0  0  0  0  0  0  0  0  0  0
  -30.2114   -7.8161   -7.1757 N   0  0  0  0  0  0  0  0  0  0  0  0
  -31.0367   -7.7079   -5.9584 C   0  0  0  0  0  0  0  0  0  0  0  0
  -30.2461   -8.7799   -7.5038 H   0  0  0  0  0  0  0  0  0  0  0  0
 19 20  1  0  0  0
 20 13  1  0  0  0
 13 14  1  0  0  0
 13 18  2  0  0  0
 14 15  2  0  0  0
 15 16  1  0  0  0
 16 11  1  0  0  0
 16 17  2  0  0  0
 11  9  1  0  0  0
 11 12  1  0  0  0
  9 10  2  0  0  0
  9  7  1  0  0  0
  7  1  1  0  0  0
  7  8  1  0  0  0
  1  2  1  0  0  0
  1  6  2  0  0  0
  2  3  2  0  0  0
  3  4  1  0  0  0
  4 21  1  0  0  0
  4  5  2  0  0  0
 21 23  1  0  0  0
 21 22  1  0  0  0
 23 24  1  0  0  0
 23 31  2  0  0  0
 24 25  2  0  0  0
 25 26  1  0  0  0
 26 27  2  0  0  0
 27 28  1  0  0  0
 27 31  1  0  0  0
 28 29  1  0  0  0
 29 30  2  0  0  0
 29 35  1  0  0  0
 30 31  1  0  0  0
 30 32  1  0  0  0
 32 33  1  0  0  0
 33 34  1  0  0  0
 34 35  1  0  0  0
 34 36  1  0  0  0
  5  6  1  0  0  0
 17 18  1  0  0  0
M  END
> <minimizedAffinity>
-8.93438

$$$$
