CHEMBL597586


 26 29  0  0  0  0  0  0  0  0999 V2000
  -13.4473   -0.3628  -15.9530 O   0  0  0  0  0  0  0  0  0  0  0  0
  -13.8786    0.7872  -16.0686 C   0  0  0  0  0  0  0  0  0  0  0  0
  -14.3667    1.5693  -14.8732 C   0  0  0  0  0  0  0  0  0  0  0  0
  -15.8089    1.8900  -15.0276 C   0  0  0  0  0  0  0  0  0  0  0  0
  -16.7882    1.3234  -14.2446 C   0  0  0  0  0  0  0  0  0  0  0  0
  -18.1025    1.5506  -14.4070 N   0  0  0  0  0  0  0  0  0  0  0  0
  -18.4461    2.4113  -15.3734 C   0  0  0  0  0  0  0  0  0  0  0  0
  -17.5554    3.0272  -16.1712 N   0  0  0  0  0  0  0  0  0  0  0  0
  -16.2460    2.7452  -16.0177 C   0  0  0  0  0  0  0  0  0  0  0  0
  -15.3193    3.3986  -16.9692 C   0  0  0  0  0  0  0  0  0  0  0  0
  -15.5318    4.7480  -17.3210 C   0  0  0  0  0  0  0  0  0  0  0  0
  -14.6998    5.4111  -18.2271 C   0  0  0  0  0  0  0  0  0  0  0  0
  -13.6690    4.7225  -18.8534 C   0  0  0  0  0  0  0  0  0  0  0  0
  -13.4588    3.3779  -18.5593 C   0  0  0  0  0  0  0  0  0  0  0  0
  -14.2340    2.7296  -17.5849 C   0  0  0  0  0  0  0  0  0  0  0  0
  -13.8333    1.4127  -17.2830 N   0  0  0  0  0  0  0  0  0  0  0  0
  -13.2920    0.9033  -17.9722 H   0  0  0  0  0  0  0  0  0  0  0  0
  -19.8092    2.6253  -15.5577 N   0  0  0  0  0  0  0  0  0  0  0  0
  -19.9959    3.1082  -16.4224 H   0  0  0  0  0  0  0  0  0  0  0  0
  -20.8861    2.0103  -14.9113 C   0  0  0  0  0  0  0  0  0  0  0  0
  -21.8582    2.7922  -14.2752 C   0  0  0  0  0  0  0  0  0  0  0  0
  -22.8759    2.1924  -13.5248 C   0  0  0  0  0  0  0  0  0  0  0  0
  -22.9361    0.8039  -13.4200 C   0  0  0  0  0  0  0  0  0  0  0  0
  -24.2789   -0.0123  -12.3735 Br  0  0  0  0  0  0  0  0  0  0  0  0
  -21.9944    0.0116  -14.0693 C   0  0  0  0  0  0  0  0  0  0  0  0
  -20.9769    0.6165  -14.8014 C   0  0  0  0  0  0  0  0  0  0  0  0
  1  2  2  0  0  0
  2  3  1  0  0  0
  2 16  1  0  0  0
  3  4  1  0  0  0
  4  5  1  0  0  0
  4  9  2  0  0  0
  5  6  2  0  0  0
  6  7  1  0  0  0
  7 18  1  0  0  0
  7  8  2  0  0  0
 18 20  1  0  0  0
 18 19  1  0  0  0
 20 21  1  0  0  0
 20 26  2  0  0  0
 21 22  2  0  0  0
 22 23  1  0  0  0
 23 24  1  0  0  0
 23 25  2  0  0  0
 25 26  1  0  0  0
  8  9  1  0  0  0
  9 10  1  0  0  0
 10 11  1  0  0  0
 10 15  2  0  0  0
 11 12  2  0  0  0
 12 13  1  0  0  0
 13 14  2  0  0  0
 14 15  1  0  0  0
 15 16  1  0  0  0
 16 17  1  0  0  0
M  END
> <minimizedAffinity>
-8.13469

$$$$
