CHEMBL4577116


 40 43  0  0  0  0  0  0  0  0999 V2000
  -28.5951   -3.1217   -6.0962 C   0  0  0  0  0  0  0  0  0  0  0  0
  -27.8092   -3.4164   -4.9792 C   0  0  0  0  0  0  0  0  0  0  0  0
  -28.1750   -4.4226   -4.0834 C   0  0  0  0  0  0  0  0  0  0  0  0
  -29.3383   -5.1664   -4.2943 C   0  0  0  0  0  0  0  0  0  0  0  0
  -30.1811   -4.8031   -5.3573 C   0  0  0  0  0  0  0  0  0  0  0  0
  -29.8186   -3.7780   -6.2446 C   0  0  0  0  0  0  0  0  0  0  0  0
  -27.6542   -3.7450   -8.7286 O   0  0  0  0  0  0  0  0  0  0  0  0
  -27.7304   -2.5810   -8.3498 C   0  0  0  0  0  0  0  0  0  0  0  0
  -28.1897   -2.2062   -7.0949 N   0  0  0  0  0  0  0  0  0  0  0  0
  -27.3868   -1.4846   -9.1273 N   0  0  0  0  0  0  0  0  0  0  0  0
  -28.4935   -1.2508   -6.9863 H   0  0  0  0  0  0  0  0  0  0  0  0
  -27.4286   -0.5766   -8.6879 H   0  0  0  0  0  0  0  0  0  0  0  0
  -26.9294   -1.5250  -10.4692 C   0  0  0  0  0  0  0  0  0  0  0  0
  -27.7706   -1.4334  -11.5781 C   0  0  0  0  0  0  0  0  0  0  0  0
  -27.2596   -1.4946  -12.8755 C   0  0  0  0  0  0  0  0  0  0  0  0
  -25.8894   -1.6316  -13.0955 C   0  0  0  0  0  0  0  0  0  0  0  0
  -25.3862   -1.7205  -14.7416 Cl  0  0  0  0  0  0  0  0  0  0  0  0
  -25.0120   -1.6953  -12.0096 C   0  0  0  0  0  0  0  0  0  0  0  0
  -25.5535   -1.6549  -10.6977 C   0  0  0  0  0  0  0  0  0  0  0  0
  -23.5144   -1.7876  -12.1360 C   0  0  0  0  0  0  0  0  0  0  0  0
  -22.8882   -0.7611  -12.7645 F   0  0  0  0  0  0  0  0  0  0  0  0
  -22.9184   -1.8793  -10.9109 F   0  0  0  0  0  0  0  0  0  0  0  0
  -23.1340   -2.9142  -12.8045 F   0  0  0  0  0  0  0  0  0  0  0  0
  -29.6638   -6.4081   -3.5166 C   0  0  0  0  0  0  0  0  0  0  0  0
  -30.8144   -6.5965   -3.1333 O   0  0  0  0  0  0  0  0  0  0  0  0
  -28.6272   -7.3314   -3.3924 N   0  0  0  0  0  0  0  0  0  0  0  0
  -27.7190   -7.0800   -3.7637 H   0  0  0  0  0  0  0  0  0  0  0  0
  -28.9460   -8.6562   -3.5461 N   0  0  0  0  0  0  0  0  0  0  0  0
  -28.0857   -9.3619   -4.2157 C   0  0  0  0  0  0  0  0  0  0  0  0
  -26.6296   -9.0358   -4.5942 C   0  0  0  0  0  0  0  0  0  0  0  0
  -25.9089   -8.2563   -4.0230 O   0  0  0  0  0  0  0  0  0  0  0  0
  -26.4161   -9.7016   -5.7863 N   0  0  0  0  0  0  0  0  0  0  0  0
  -27.6007  -10.2996   -6.2083 C   0  0  0  0  0  0  0  0  0  0  0  0
  -27.9721  -10.5601   -7.5095 C   0  0  0  0  0  0  0  0  0  0  0  0
  -29.3096  -10.9249   -7.7301 C   0  0  0  0  0  0  0  0  0  0  0  0
  -30.2070  -11.1043   -6.6553 C   0  0  0  0  0  0  0  0  0  0  0  0
  -31.8372  -11.5507   -6.9762 Cl  0  0  0  0  0  0  0  0  0  0  0  0
  -29.8270  -10.8224   -5.3486 C   0  0  0  0  0  0  0  0  0  0  0  0
  -28.5366  -10.3660   -5.1753 C   0  0  0  0  0  0  0  0  0  0  0  0
  -25.5688   -9.6020   -6.3212 H   0  0  0  0  0  0  0  0  0  0  0  0
  7  8  2  0  0  0
  8  9  1  0  0  0
  8 10  1  0  0  0
  9  1  1  0  0  0
  9 11  1  0  0  0
  1  2  1  0  0  0
  1  6  2  0  0  0
  2  3  2  0  0  0
  3  4  1  0  0  0
  4 24  1  0  0  0
  4  5  2  0  0  0
 24 25  2  0  0  0
 24 26  1  0  0  0
 26 28  1  0  0  0
 26 27  1  0  0  0
 28 29  2  0  0  0
 29 30  1  0  0  0
 29 39  1  0  0  0
 30 31  2  0  0  0
 30 32  1  0  0  0
 32 33  1  0  0  0
 32 40  1  0  0  0
 33 34  1  0  0  0
 33 39  2  0  0  0
 34 35  2  0  0  0
 35 36  1  0  0  0
 36 37  1  0  0  0
 36 38  2  0  0  0
 38 39  1  0  0  0
  5  6  1  0  0  0
 10 13  1  0  0  0
 10 12  1  0  0  0
 13 14  1  0  0  0
 13 19  2  0  0  0
 14 15  2  0  0  0
 15 16  1  0  0  0
 16 17  1  0  0  0
 16 18  2  0  0  0
 18 20  1  0  0  0
 18 19  1  0  0  0
 20 21  1  0  0  0
 20 22  1  0  0  0
 20 23  1  0  0  0
M  END
> <minimizedAffinity>
-11.25129

$$$$
