CHEMBL2047253


 26 29  0  0  0  0  0  0  0  0999 V2000
  -11.3462    0.8258  -13.8378 N   0  0  0  0  0  0  0  0  0  0  0  0
  -12.7130    0.9390  -13.9874 C   0  0  0  0  0  0  0  0  0  0  0  0
  -13.1687    1.7965  -14.8993 N   0  0  0  0  0  0  0  0  0  0  0  0
  -14.5056    1.8483  -14.9800 C   0  0  0  0  0  0  0  0  0  0  0  0
  -15.3950    1.0860  -14.2255 C   0  0  0  0  0  0  0  0  0  0  0  0
  -14.8211    0.2301  -13.3192 C   0  0  0  0  0  0  0  0  0  0  0  0
  -13.4731    0.1505  -13.2171 N   0  0  0  0  0  0  0  0  0  0  0  0
  -16.7524    1.4631  -14.5620 C   0  0  0  0  0  0  0  0  0  0  0  0
  -17.9766    1.0290  -14.0813 C   0  0  0  0  0  0  0  0  0  0  0  0
  -19.1420    1.6080  -14.5976 C   0  0  0  0  0  0  0  0  0  0  0  0
  -19.0785    2.6133  -15.5767 C   0  0  0  0  0  0  0  0  0  0  0  0
  -17.8486    3.0610  -16.0581 C   0  0  0  0  0  0  0  0  0  0  0  0
  -16.7013    2.4789  -15.5449 C   0  0  0  0  0  0  0  0  0  0  0  0
  -15.2634    2.8054  -15.8871 C   0  0  0  0  0  0  0  0  0  0  0  0
  -10.8808    1.1142  -14.6860 H   0  0  0  0  0  0  0  0  0  0  0  0
  -11.1204   -0.0872  -13.4677 H   0  0  0  0  0  0  0  0  0  0  0  0
  -15.6125   -0.5679  -12.4648 N   0  0  0  0  0  0  0  0  0  0  0  0
  -16.5091   -0.1181  -12.2931 H   0  0  0  0  0  0  0  0  0  0  0  0
  -15.7304   -1.9738  -12.5653 C   0  0  0  0  0  0  0  0  0  0  0  0
  -15.5874   -2.6288  -13.7978 C   0  0  0  0  0  0  0  0  0  0  0  0
  -15.7128   -4.0155  -13.8938 C   0  0  0  0  0  0  0  0  0  0  0  0
  -15.9551   -4.7666  -12.7470 C   0  0  0  0  0  0  0  0  0  0  0  0
  -16.1455   -6.4711  -12.8750 Cl  0  0  0  0  0  0  0  0  0  0  0  0
  -16.0475   -4.1473  -11.5037 C   0  0  0  0  0  0  0  0  0  0  0  0
  -15.9235   -2.7625  -11.4237 C   0  0  0  0  0  0  0  0  0  0  0  0
  -16.0153   -2.1706  -10.2218 F   0  0  0  0  0  0  0  0  0  0  0  0
  1  2  1  0  0  0
  1 15  1  0  0  0
  1 16  1  0  0  0
  2  3  1  0  0  0
  2  7  2  0  0  0
  3  4  2  0  0  0
  4  5  1  0  0  0
  4 14  1  0  0  0
  5  6  2  0  0  0
  5  8  1  0  0  0
  6 17  1  0  0  0
  6  7  1  0  0  0
 17 19  1  0  0  0
 17 18  1  0  0  0
 19 20  1  0  0  0
 19 25  2  0  0  0
 20 21  2  0  0  0
 21 22  1  0  0  0
 22 23  1  0  0  0
 22 24  2  0  0  0
 24 25  1  0  0  0
 25 26  1  0  0  0
  8  9  1  0  0  0
  8 13  2  0  0  0
  9 10  2  0  0  0
 10 11  1  0  0  0
 11 12  2  0  0  0
 12 13  1  0  0  0
 13 14  1  0  0  0
M  END
> <minimizedAffinity>
-8.09181

$$$$
