CHEMBL1682348


 23 26  0  0  0  0  0  0  0  0999 V2000
  -23.1348   -0.7687  -13.3219 N   0  0  0  0  0  0  0  0  0  0  0  0
  -21.9048   -0.5516  -13.8691 C   0  0  0  0  0  0  0  0  0  0  0  0
  -21.8508    0.8211  -14.0126 C   0  0  0  0  0  0  0  0  0  0  0  0
  -23.0294    1.3660  -13.5769 N   0  0  0  0  0  0  0  0  0  0  0  0
  -23.8246    0.3788  -13.1861 N   0  0  0  0  0  0  0  0  0  0  0  0
  -20.7337    1.5918  -14.5208 C   0  0  0  0  0  0  0  0  0  0  0  0
  -20.8630    2.9644  -14.7780 C   0  0  0  0  0  0  0  0  0  0  0  0
  -19.7917    3.7313  -15.2514 C   0  0  0  0  0  0  0  0  0  0  0  0
  -18.5980    3.0559  -15.5120 C   0  0  0  0  0  0  0  0  0  0  0  0
  -17.4013    3.4864  -16.0190 N   0  0  0  0  0  0  0  0  0  0  0  0
  -16.4768    2.5174  -16.1463 N   0  0  0  0  0  0  0  0  0  0  0  0
  -17.1067    1.4297  -15.6925 C   0  0  0  0  0  0  0  0  0  0  0  0
  -18.4325    1.6962  -15.2827 C   0  0  0  0  0  0  0  0  0  0  0  0
  -19.5003    0.9514  -14.7504 C   0  0  0  0  0  0  0  0  0  0  0  0
  -17.1569    4.4234  -16.3146 H   0  0  0  0  0  0  0  0  0  0  0  0
  -23.7158   -2.0351  -12.9132 C   0  0  0  0  0  0  0  0  0  0  0  0
  -27.3810   -1.5482   -9.2197 Cl  0  0  0  0  0  0  0  0  0  0  0  0
  -26.9160   -1.6552  -10.8727 C   0  0  0  0  0  0  0  0  0  0  0  0
  -27.8864   -1.5928  -11.8692 C   0  0  0  0  0  0  0  0  0  0  0  0
  -27.5077   -1.6832  -13.2067 C   0  0  0  0  0  0  0  0  0  0  0  0
  -26.1622   -1.8358  -13.5436 C   0  0  0  0  0  0  0  0  0  0  0  0
  -25.1729   -1.8860  -12.5460 C   0  0  0  0  0  0  0  0  0  0  0  0
  -25.5663   -1.8006  -11.2023 C   0  0  0  0  0  0  0  0  0  0  0  0
 17 18  1  0  0  0
 18 19  1  0  0  0
 18 23  2  0  0  0
 19 20  2  0  0  0
 20 21  1  0  0  0
 21 22  2  0  0  0
 22 16  1  0  0  0
 22 23  1  0  0  0
 16  1  1  0  0  0
  1  2  1  0  0  0
  1  5  1  0  0  0
  2  3  2  0  0  0
  3  6  1  0  0  0
  3  4  1  0  0  0
  6  7  1  0  0  0
  6 14  2  0  0  0
  7  8  2  0  0  0
  8  9  1  0  0  0
  9 10  1  0  0  0
  9 13  2  0  0  0
 10 11  1  0  0  0
 10 15  1  0  0  0
 11 12  2  0  0  0
 12 13  1  0  0  0
 13 14  1  0  0  0
  4  5  2  0  0  0
M  END
> <minimizedAffinity>
-9.05131

$$$$
