CHEMBL3125881


 41 45  0  0  0  0  0  0  0  0999 V2000
  -25.2431   -1.2102  -12.1776 C   0  0  0  0  0  0  0  0  0  0  0  0
  -25.5869   -1.8354  -13.3816 C   0  0  0  0  0  0  0  0  0  0  0  0
  -24.9555   -1.4939  -14.5700 C   0  0  0  0  0  0  0  0  0  0  0  0
  -23.9693   -0.5176  -14.5648 C   0  0  0  0  0  0  0  0  0  0  0  0
  -23.6961    0.2209  -13.4005 C   0  0  0  0  0  0  0  0  0  0  0  0
  -24.3227   -0.1431  -12.1990 C   0  0  0  0  0  0  0  0  0  0  0  0
  -27.1186   -1.4615  -10.5628 C   0  0  0  0  0  0  0  0  0  0  0  0
  -27.9986   -0.9262  -11.2303 O   0  0  0  0  0  0  0  0  0  0  0  0
  -25.7889   -1.6345  -10.9379 N   0  0  0  0  0  0  0  0  0  0  0  0
  -25.2275   -2.2748  -10.3921 H   0  0  0  0  0  0  0  0  0  0  0  0
  -28.1441   -1.7014   -6.9214 C   0  0  0  0  0  0  0  0  0  0  0  0
  -28.3710   -3.0865   -6.8094 C   0  0  0  0  0  0  0  0  0  0  0  0
  -28.1750   -3.9481   -7.8985 C   0  0  0  0  0  0  0  0  0  0  0  0
  -27.7663   -3.4499   -9.1366 C   0  0  0  0  0  0  0  0  0  0  0  0
  -27.5361   -2.0838   -9.2768 C   0  0  0  0  0  0  0  0  0  0  0  0
  -27.6886   -1.2317   -8.1667 C   0  0  0  0  0  0  0  0  0  0  0  0
  -29.6329   -1.1631   -4.8829 C   0  0  0  0  0  0  0  0  0  0  0  0
  -28.4070   -0.7537   -5.7323 C   0  0  0  0  0  0  0  0  0  0  0  0
  -27.1918   -0.7605   -4.7762 C   0  0  0  0  0  0  0  0  0  0  0  0
  -28.6371    0.6350   -6.2132 C   0  0  0  0  0  0  0  0  0  0  0  0
  -28.8163    1.7175   -6.5944 N   0  0  0  0  0  0  0  0  0  0  0  0
  -22.8291    1.3189  -13.3932 O   0  0  0  0  0  0  0  0  0  0  0  0
  -21.6302    1.1971  -14.0980 C   0  0  0  0  0  0  0  0  0  0  0  0
  -21.3351   -0.0290  -14.6994 C   0  0  0  0  0  0  0  0  0  0  0  0
  -20.0540   -0.3385  -15.1000 C   0  0  0  0  0  0  0  0  0  0  0  0
  -19.1016    0.6748  -15.1550 C   0  0  0  0  0  0  0  0  0  0  0  0
  -17.8308    0.4385  -15.6248 N   0  0  0  0  0  0  0  0  0  0  0  0
  -17.1844    1.5650  -15.7416 C   0  0  0  0  0  0  0  0  0  0  0  0
  -18.0486    2.9551  -15.2315 S   0  0  0  0  0  0  0  0  0  0  0  0
  -19.4408    1.9840  -14.7705 C   0  0  0  0  0  0  0  0  0  0  0  0
  -20.7140    2.2897  -14.1620 C   0  0  0  0  0  0  0  0  0  0  0  0
  -15.9207    1.5523  -16.3049 N   0  0  0  0  0  0  0  0  0  0  0  0
  -14.7226    1.6218  -15.6519 C   0  0  0  0  0  0  0  0  0  0  0  0
  -14.5531    1.6744  -14.4370 O   0  0  0  0  0  0  0  0  0  0  0  0
  -15.9435    1.4323  -17.3122 H   0  0  0  0  0  0  0  0  0  0  0  0
  -13.4823    1.6448  -16.5244 C   0  0  0  0  0  0  0  0  0  0  0  0
  -13.5298    1.1832  -17.9668 C   0  0  0  0  0  0  0  0  0  0  0  0
  -12.8936    0.3061  -16.9343 C   0  0  0  0  0  0  0  0  0  0  0  0
  -21.1387    3.6585  -13.6539 C   0  0  0  0  0  0  0  0  0  0  0  0
  -22.5196    3.9510  -13.8819 O   0  0  0  0  0  0  0  0  0  0  0  0
  -22.7731    3.5801  -14.7443 H   0  0  0  0  0  0  0  0  0  0  0  0
 17 18  1  0  0  0
 18 19  1  0  0  0
 18 20  1  0  0  0
 18 11  1  0  0  0
 20 21  3  0  0  0
 11 12  1  0  0  0
 11 16  2  0  0  0
 12 13  2  0  0  0
 13 14  1  0  0  0
 14 15  2  0  0  0
 15  7  1  0  0  0
 15 16  1  0  0  0
  7  8  2  0  0  0
  7  9  1  0  0  0
  9  1  1  0  0  0
  9 10  1  0  0  0
  1  2  1  0  0  0
  1  6  2  0  0  0
  2  3  2  0  0  0
  3  4  1  0  0  0
  4  5  2  0  0  0
  5 22  1  0  0  0
  5  6  1  0  0  0
 22 23  1  0  0  0
 23 24  1  0  0  0
 23 31  2  0  0  0
 24 25  2  0  0  0
 25 26  1  0  0  0
 26 27  1  0  0  0
 26 30  2  0  0  0
 27 28  2  0  0  0
 28 32  1  0  0  0
 28 29  1  0  0  0
 32 33  1  0  0  0
 32 35  1  0  0  0
 33 34  2  0  0  0
 33 36  1  0  0  0
 36 37  1  0  0  0
 36 38  1  0  0  0
 37 38  1  0  0  0
 29 30  1  0  0  0
 30 31  1  0  0  0
 31 39  1  0  0  0
 39 40  1  0  0  0
 40 41  1  0  0  0
M  END
> <minimizedAffinity>
-9.41890

$$$$
