CHEMBL197828


 36 39  0  0  0  0  0  0  0  0999 V2000
  -29.8437   -8.8941   -6.6390 C   0  0  0  0  0  0  0  0  0  0  0  0
  -30.9510   -8.0655   -6.8128 C   0  0  0  0  0  0  0  0  0  0  0  0
  -31.0405   -6.8225   -6.1766 C   0  0  0  0  0  0  0  0  0  0  0  0
  -30.0957   -6.4234   -5.2329 C   0  0  0  0  0  0  0  0  0  0  0  0
  -29.0500   -7.3040   -4.9477 C   0  0  0  0  0  0  0  0  0  0  0  0
  -28.9060   -8.5071   -5.6691 C   0  0  0  0  0  0  0  0  0  0  0  0
  -30.3360  -11.2888   -7.2830 C   0  0  0  0  0  0  0  0  0  0  0  0
  -29.9056  -12.4657   -8.4569 S   0  0  0  0  0  0  0  0  0  0  0  0
  -28.9405  -11.3887   -9.3254 C   0  0  0  0  0  0  0  0  0  0  0  0
  -28.3569  -11.8116  -10.4588 N   0  0  0  0  0  0  0  0  0  0  0  0
  -27.6116  -10.8729  -11.0314 C   0  0  0  0  0  0  0  0  0  0  0  0
  -27.3872   -9.6377  -10.5760 N   0  0  0  0  0  0  0  0  0  0  0  0
  -27.9689   -9.2512   -9.4236 C   0  0  0  0  0  0  0  0  0  0  0  0
  -27.6208   -7.9678   -9.0288 N   0  0  0  0  0  0  0  0  0  0  0  0
  -28.8339  -10.1396   -8.7333 C   0  0  0  0  0  0  0  0  0  0  0  0
  -29.6762  -10.0740   -7.5165 C   0  0  0  0  0  0  0  0  0  0  0  0
  -26.8582   -7.6172   -9.5976 H   0  0  0  0  0  0  0  0  0  0  0  0
  -27.5205   -7.8349   -8.0314 H   0  0  0  0  0  0  0  0  0  0  0  0
  -32.7669  -11.4911   -6.4278 C   0  0  0  0  0  0  0  0  0  0  0  0
  -31.2780  -11.6981   -6.1665 C   0  0  0  0  0  0  0  0  0  0  0  0
  -30.1202   -5.1577   -4.6015 N   0  0  0  0  0  0  0  0  0  0  0  0
  -29.7007   -3.9619   -5.1615 C   0  0  0  0  0  0  0  0  0  0  0  0
  -29.3444   -3.8093   -6.3263 O   0  0  0  0  0  0  0  0  0  0  0  0
  -29.6671   -2.9377   -4.2244 N   0  0  0  0  0  0  0  0  0  0  0  0
  -30.5439   -5.1092   -3.6867 H   0  0  0  0  0  0  0  0  0  0  0  0
  -29.4216   -3.2316   -3.2912 H   0  0  0  0  0  0  0  0  0  0  0  0
  -29.2661   -1.6326   -4.5952 C   0  0  0  0  0  0  0  0  0  0  0  0
  -27.9312   -1.2658   -4.4269 C   0  0  0  0  0  0  0  0  0  0  0  0
  -27.4915   -0.0127   -4.8610 C   0  0  0  0  0  0  0  0  0  0  0  0
  -28.3960    0.8981   -5.4092 C   0  0  0  0  0  0  0  0  0  0  0  0
  -29.7510    0.5651   -5.5391 C   0  0  0  0  0  0  0  0  0  0  0  0
  -30.1726   -0.7133   -5.1371 C   0  0  0  0  0  0  0  0  0  0  0  0
  -30.7542    1.5479   -6.0911 C   0  0  0  0  0  0  0  0  0  0  0  0
  -31.8512    0.9500   -6.6377 F   0  0  0  0  0  0  0  0  0  0  0  0
  -31.2306    2.4078   -5.1505 F   0  0  0  0  0  0  0  0  0  0  0  0
  -30.2303    2.3251   -7.0809 F   0  0  0  0  0  0  0  0  0  0  0  0
 19 20  1  0  0  0
 20  7  1  0  0  0
  7  8  1  0  0  0
  7 16  2  0  0  0
  8  9  1  0  0  0
  9 10  1  0  0  0
  9 15  2  0  0  0
 10 11  2  0  0  0
 11 12  1  0  0  0
 12 13  2  0  0  0
 13 14  1  0  0  0
 13 15  1  0  0  0
 14 17  1  0  0  0
 14 18  1  0  0  0
 15 16  1  0  0  0
 16  1  1  0  0  0
  1  2  1  0  0  0
  1  6  2  0  0  0
  2  3  2  0  0  0
  3  4  1  0  0  0
  4 21  1  0  0  0
  4  5  2  0  0  0
 21 22  1  0  0  0
 21 25  1  0  0  0
 22 23  2  0  0  0
 22 24  1  0  0  0
 24 27  1  0  0  0
 24 26  1  0  0  0
 27 28  1  0  0  0
 27 32  2  0  0  0
 28 29  2  0  0  0
 29 30  1  0  0  0
 30 31  2  0  0  0
 31 33  1  0  0  0
 31 32  1  0  0  0
 33 34  1  0  0  0
 33 35  1  0  0  0
 33 36  1  0  0  0
  5  6  1  0  0  0
M  END
> <minimizedAffinity>
-9.02114

$$$$
