CHEMBL1241677


 27 30  0  0  0  0  0  0  0  0999 V2000
  -15.9465   -0.0267  -12.7625 N   0  0  0  0  0  0  0  0  0  0  0  0
  -15.0048    0.6730  -13.5054 C   0  0  0  0  0  0  0  0  0  0  0  0
  -13.7267    0.5680  -13.0808 N   0  0  0  0  0  0  0  0  0  0  0  0
  -12.7599    1.2003  -13.7720 C   0  0  0  0  0  0  0  0  0  0  0  0
  -12.8885    1.9193  -14.8939 N   0  0  0  0  0  0  0  0  0  0  0  0
  -14.1727    2.0174  -15.2704 C   0  0  0  0  0  0  0  0  0  0  0  0
  -15.2757    1.4573  -14.6387 C   0  0  0  0  0  0  0  0  0  0  0  0
  -16.3974    1.9116  -15.4044 C   0  0  0  0  0  0  0  0  0  0  0  0
  -15.9955    2.6316  -16.4679 N   0  0  0  0  0  0  0  0  0  0  0  0
  -14.6546    2.6772  -16.3678 N   0  0  0  0  0  0  0  0  0  0  0  0
  -15.4930   -0.6871  -12.1393 H   0  0  0  0  0  0  0  0  0  0  0  0
  -16.7295   -0.3921  -13.2890 H   0  0  0  0  0  0  0  0  0  0  0  0
  -17.8334    1.7170  -15.1722 C   0  0  0  0  0  0  0  0  0  0  0  0
  -18.4334    0.4595  -15.3340 C   0  0  0  0  0  0  0  0  0  0  0  0
  -19.8049    0.2822  -15.1267 C   0  0  0  0  0  0  0  0  0  0  0  0
  -20.5797    1.3533  -14.6934 C   0  0  0  0  0  0  0  0  0  0  0  0
  -22.2631    1.1221  -14.4090 Cl  0  0  0  0  0  0  0  0  0  0  0  0
  -19.9853    2.5965  -14.4761 C   0  0  0  0  0  0  0  0  0  0  0  0
  -20.6965    3.6648  -14.0023 O   0  0  0  0  0  0  0  0  0  0  0  0
  -18.6277    2.7859  -14.7256 C   0  0  0  0  0  0  0  0  0  0  0  0
  -21.5993    3.3485  -13.8119 H   0  0  0  0  0  0  0  0  0  0  0  0
  -13.8462    3.3598  -17.3681 C   0  0  0  0  0  0  0  0  0  0  0  0
  -13.7214    4.8696  -17.1826 C   0  0  0  0  0  0  0  0  0  0  0  0
  -14.8318    5.4242  -18.0548 C   0  0  0  0  0  0  0  0  0  0  0  0
  -14.8331    4.5640  -19.2446 N   0  0  0  0  0  0  0  0  0  0  0  0
  -14.4469    3.2181  -18.7719 C   0  0  0  0  0  0  0  0  0  0  0  0
  -14.1321    4.9048  -19.9028 H   0  0  0  0  0  0  0  0  0  0  0  0
  1  2  1  0  0  0
  1 11  1  0  0  0
  1 12  1  0  0  0
  2  3  1  0  0  0
  2  7  2  0  0  0
  3  4  2  0  0  0
  4  5  1  0  0  0
  5  6  2  0  0  0
  6  7  1  0  0  0
  6 10  1  0  0  0
  7  8  1  0  0  0
  8 13  1  0  0  0
  8  9  2  0  0  0
 13 14  1  0  0  0
 13 20  2  0  0  0
 14 15  2  0  0  0
 15 16  1  0  0  0
 16 17  1  0  0  0
 16 18  2  0  0  0
 18 19  1  0  0  0
 18 20  1  0  0  0
 19 21  1  0  0  0
  9 10  1  0  0  0
 10 22  1  0  0  0
 22 23  1  0  0  0
 22 26  1  0  0  0
 23 24  1  0  0  0
 24 25  1  0  0  0
 25 26  1  0  0  0
 25 27  1  0  0  0
M  END
> <minimizedAffinity>
-7.47748

$$$$
