CHEMBL494072


 34 38  0  0  0  0  0  0  0  0999 V2000
  -15.9038    0.3275  -14.2222 C   0  0  0  0  0  0  0  0  0  0  0  0
  -14.6509    0.0407  -14.7830 C   0  0  0  0  0  0  0  0  0  0  0  0
  -13.8235   -0.9694  -14.2781 C   0  0  0  0  0  0  0  0  0  0  0  0
  -14.1653   -1.6814  -13.1477 C   0  0  0  0  0  0  0  0  0  0  0  0
  -13.3106   -2.5885  -12.6695 N   0  0  0  0  0  0  0  0  0  0  0  0
  -13.6857   -3.2902  -11.5994 C   0  0  0  0  0  0  0  0  0  0  0  0
  -14.8357   -3.0976  -10.9419 N   0  0  0  0  0  0  0  0  0  0  0  0
  -15.6605   -2.1481  -11.4181 C   0  0  0  0  0  0  0  0  0  0  0  0
  -15.3910   -1.4022  -12.5501 C   0  0  0  0  0  0  0  0  0  0  0  0
  -16.2589   -0.4242  -13.0860 C   0  0  0  0  0  0  0  0  0  0  0  0
  -15.0140    2.4558  -16.2973 C   0  0  0  0  0  0  0  0  0  0  0  0
  -16.3919    2.3896  -15.6880 C   0  0  0  0  0  0  0  0  0  0  0  0
  -17.3121    3.3712  -16.1142 C   0  0  0  0  0  0  0  0  0  0  0  0
  -18.6364    3.3650  -15.6816 C   0  0  0  0  0  0  0  0  0  0  0  0
  -19.0600    2.3910  -14.7818 C   0  0  0  0  0  0  0  0  0  0  0  0
  -18.1451    1.4287  -14.3305 C   0  0  0  0  0  0  0  0  0  0  0  0
  -16.7959    1.3963  -14.7568 C   0  0  0  0  0  0  0  0  0  0  0  0
  -20.4727    2.2823  -14.3270 C   0  0  0  0  0  0  0  0  0  0  0  0
  -21.1157    3.3008  -14.0921 O   0  0  0  0  0  0  0  0  0  0  0  0
  -20.9902    1.0052  -14.2199 N   0  0  0  0  0  0  0  0  0  0  0  0
  -20.4649    0.2235  -14.5882 H   0  0  0  0  0  0  0  0  0  0  0  0
  -22.3461    0.7759  -13.8298 C   0  0  0  0  0  0  0  0  0  0  0  0
  -22.6608    0.0382  -12.5579 C   0  0  0  0  0  0  0  0  0  0  0  0
  -22.9370   -0.6061  -13.8843 C   0  0  0  0  0  0  0  0  0  0  0  0
  -12.8136   -4.2915  -11.2108 N   0  0  0  0  0  0  0  0  0  0  0  0
  -12.1328   -3.8895  -10.5797 H   0  0  0  0  0  0  0  0  0  0  0  0
  -13.4133   -5.5550  -10.8139 C   0  0  0  0  0  0  0  0  0  0  0  0
  -13.2287   -6.5815  -11.9604 C   0  0  0  0  0  0  0  0  0  0  0  0
  -14.4234   -7.3495  -12.3607 N   0  0  0  0  0  0  0  0  0  0  0  0
  -14.1903   -8.2351  -13.5177 C   0  0  0  0  0  0  0  0  0  0  0  0
  -13.9537   -7.4797  -14.8354 C   0  0  0  0  0  0  0  0  0  0  0  0
  -15.0539   -6.6123  -15.1389 O   0  0  0  0  0  0  0  0  0  0  0  0
  -15.2911   -5.6864  -14.0705 C   0  0  0  0  0  0  0  0  0  0  0  0
  -15.5149   -6.4144  -12.7302 C   0  0  0  0  0  0  0  0  0  0  0  0
 11 12  1  0  0  0
 12 13  1  0  0  0
 12 17  2  0  0  0
 13 14  2  0  0  0
 14 15  1  0  0  0
 15 18  1  0  0  0
 15 16  2  0  0  0
 18 19  2  0  0  0
 18 20  1  0  0  0
 20 22  1  0  0  0
 20 21  1  0  0  0
 22 23  1  0  0  0
 22 24  1  0  0  0
 23 24  1  0  0  0
 16 17  1  0  0  0
 17  1  1  0  0  0
  1  2  1  0  0  0
  1 10  2  0  0  0
  2  3  2  0  0  0
  3  4  1  0  0  0
  4  5  1  0  0  0
  4  9  2  0  0  0
  5  6  2  0  0  0
  6 25  1  0  0  0
  6  7  1  0  0  0
 25 27  1  0  0  0
 25 26  1  0  0  0
 27 28  1  0  0  0
 28 29  1  0  0  0
 29 30  1  0  0  0
 29 34  1  0  0  0
 30 31  1  0  0  0
 31 32  1  0  0  0
 32 33  1  0  0  0
 33 34  1  0  0  0
  7  8  2  0  0  0
  8  9  1  0  0  0
  9 10  1  0  0  0
M  END
> <minimizedAffinity>
-9.37795

$$$$
