CHEMBL460746


 34 37  0  0  0  0  0  0  0  0999 V2000
  -27.5190   -1.6258   -6.1098 N   0  0  0  0  0  0  0  0  0  0  0  0
  -26.5236   -1.7096   -5.9019 H   0  0  0  0  0  0  0  0  0  0  0  0
  -28.3481   -2.5533   -5.4499 C   0  0  0  0  0  0  0  0  0  0  0  0
  -28.6073   -2.3552   -4.0927 C   0  0  0  0  0  0  0  0  0  0  0  0
  -29.3691   -3.2820   -3.3796 C   0  0  0  0  0  0  0  0  0  0  0  0
  -29.8405   -4.4336   -4.0155 C   0  0  0  0  0  0  0  0  0  0  0  0
  -30.6092   -5.3097   -3.2991 O   0  0  0  0  0  0  0  0  0  0  0  0
  -29.5601   -4.6846   -5.3686 C   0  0  0  0  0  0  0  0  0  0  0  0
  -28.8098   -3.7201   -6.0690 C   0  0  0  0  0  0  0  0  0  0  0  0
  -30.5435   -5.1068   -2.3536 H   0  0  0  0  0  0  0  0  0  0  0  0
  -29.9885   -5.9348   -6.0243 C   0  0  0  0  0  0  0  0  0  0  0  0
  -31.1800   -6.4832   -5.8940 N   0  0  0  0  0  0  0  0  0  0  0  0
  -31.3047   -7.5824   -6.7210 C   0  0  0  0  0  0  0  0  0  0  0  0
  -32.4723   -8.3508   -6.9017 C   0  0  0  0  0  0  0  0  0  0  0  0
  -32.4626   -9.4313   -7.7892 C   0  0  0  0  0  0  0  0  0  0  0  0
  -31.3009   -9.7660   -8.4779 C   0  0  0  0  0  0  0  0  0  0  0  0
  -30.1268   -9.0259   -8.3064 C   0  0  0  0  0  0  0  0  0  0  0  0
  -30.1572   -7.9262   -7.4330 C   0  0  0  0  0  0  0  0  0  0  0  0
  -28.9128   -6.8020   -7.0602 S   0  0  0  0  0  0  0  0  0  0  0  0
  -27.8321   -0.6914   -7.0673 C   0  0  0  0  0  0  0  0  0  0  0  0
  -28.7610    0.6874   -6.8722 S   0  0  0  0  0  0  0  0  0  0  0  0
  -28.5636   -2.6671   -9.0817 O   0  0  0  0  0  0  0  0  0  0  0  0
  -27.6915   -1.8232   -9.2693 C   0  0  0  0  0  0  0  0  0  0  0  0
  -27.2757   -0.9083   -8.3154 N   0  0  0  0  0  0  0  0  0  0  0  0
  -26.5904   -0.2103   -8.5709 H   0  0  0  0  0  0  0  0  0  0  0  0
  -27.0082   -1.7866  -10.5875 C   0  0  0  0  0  0  0  0  0  0  0  0
  -25.6363   -1.4898  -10.6003 C   0  0  0  0  0  0  0  0  0  0  0  0
  -24.9639   -1.2935  -11.8091 C   0  0  0  0  0  0  0  0  0  0  0  0
  -25.6725   -1.3885  -13.0121 C   0  0  0  0  0  0  0  0  0  0  0  0
  -27.0376   -1.7181  -13.0111 C   0  0  0  0  0  0  0  0  0  0  0  0
  -27.7057   -1.9192  -11.7957 C   0  0  0  0  0  0  0  0  0  0  0  0
  -24.9892   -1.1028  -14.2796 N   0  0  0  0  0  0  0  0  0  0  0  0
  -23.8538   -0.6085  -14.2297 O   0  0  0  0  0  0  0  0  0  0  0  0
  -25.5871   -1.3744  -15.3285 O   0  0  0  0  0  0  0  0  0  0  0  0
 22 23  2  0  0  0
 23 24  1  0  0  0
 23 26  1  0  0  0
 24 20  1  0  0  0
 24 25  1  0  0  0
 20 21  2  0  0  0
 20  1  1  0  0  0
  1  3  1  0  0  0
  1  2  1  0  0  0
  3  4  1  0  0  0
  3  9  2  0  0  0
  4  5  2  0  0  0
  5  6  1  0  0  0
  6  7  1  0  0  0
  6  8  2  0  0  0
  7 10  1  0  0  0
  8 11  1  0  0  0
  8  9  1  0  0  0
 11 12  2  0  0  0
 11 19  1  0  0  0
 12 13  1  0  0  0
 13 14  1  0  0  0
 13 18  2  0  0  0
 14 15  2  0  0  0
 15 16  1  0  0  0
 16 17  2  0  0  0
 17 18  1  0  0  0
 18 19  1  0  0  0
 26 27  1  0  0  0
 26 31  2  0  0  0
 27 28  2  0  0  0
 28 29  1  0  0  0
 29 32  1  0  0  0
 29 30  2  0  0  0
 32 33  2  0  0  0
 32 34  1  0  0  0
 30 31  1  0  0  0
M  CHG 1  32   1
M  CHG 1  34  -1
M  END
> <minimizedAffinity>
-9.69132

$$$$
