CHEMBL3951790


 40 45  0  0  0  0  0  0  0  0999 V2000
  -29.2736   -5.7356   -5.3663 C   0  0  0  0  0  0  0  0  0  0  0  0
  -28.1021   -6.0856   -4.6559 C   0  0  0  0  0  0  0  0  0  0  0  0
  -27.5711   -7.4035   -4.6466 C   0  0  0  0  0  0  0  0  0  0  0  0
  -28.3277   -8.4209   -5.2553 C   0  0  0  0  0  0  0  0  0  0  0  0
  -28.3129   -9.8449   -5.5014 C   0  0  0  0  0  0  0  0  0  0  0  0
  -29.5564  -10.2484   -5.1404 N   0  0  0  0  0  0  0  0  0  0  0  0
  -30.2902   -9.2409   -5.6644 N   0  0  0  0  0  0  0  0  0  0  0  0
  -29.5878   -8.0680   -5.7166 C   0  0  0  0  0  0  0  0  0  0  0  0
  -29.9893   -6.7695   -5.9901 C   0  0  0  0  0  0  0  0  0  0  0  0
  -31.2839   -9.3842   -5.8057 H   0  0  0  0  0  0  0  0  0  0  0  0
  -29.7975   -4.4087   -5.3721 N   0  0  0  0  0  0  0  0  0  0  0  0
  -30.9223   -4.1941   -4.4402 C   0  0  0  0  0  0  0  0  0  0  0  0
  -27.9035   -2.0670   -7.6064 C   0  0  0  0  0  0  0  0  0  0  0  0
  -27.9515   -0.9003   -6.8410 C   0  0  0  0  0  0  0  0  0  0  0  0
  -28.5453   -0.8946   -5.5867 C   0  0  0  0  0  0  0  0  0  0  0  0
  -29.1216   -2.0562   -5.0882 C   0  0  0  0  0  0  0  0  0  0  0  0
  -29.1554   -3.2394   -5.8463 C   0  0  0  0  0  0  0  0  0  0  0  0
  -28.5358   -3.2211   -7.1136 C   0  0  0  0  0  0  0  0  0  0  0  0
  -27.6369   -1.4535   -9.9980 C   0  0  0  0  0  0  0  0  0  0  0  0
  -28.5899   -0.6842  -10.0910 O   0  0  0  0  0  0  0  0  0  0  0  0
  -27.2388   -2.1374   -8.8585 N   0  0  0  0  0  0  0  0  0  0  0  0
  -26.3298   -2.5743   -8.8632 H   0  0  0  0  0  0  0  0  0  0  0  0
  -23.0503   -1.6272  -11.8848 C   0  0  0  0  0  0  0  0  0  0  0  0
  -24.5312   -1.6721  -12.1188 C   0  0  0  0  0  0  0  0  0  0  0  0
  -25.0676   -1.7602  -13.4132 C   0  0  0  0  0  0  0  0  0  0  0  0
  -26.4495   -1.7691  -13.5981 C   0  0  0  0  0  0  0  0  0  0  0  0
  -27.3221   -1.6915  -12.5032 C   0  0  0  0  0  0  0  0  0  0  0  0
  -26.7952   -1.6164  -11.2087 C   0  0  0  0  0  0  0  0  0  0  0  0
  -25.4072   -1.6046  -11.0223 C   0  0  0  0  0  0  0  0  0  0  0  0
  -27.9026  -10.5159   -6.7397 C   0  0  0  0  0  0  0  0  0  0  0  0
  -27.2986   -9.8658   -7.7575 C   0  0  0  0  0  0  0  0  0  0  0  0
  -27.6478  -10.0097   -9.1938 C   0  0  0  0  0  0  0  0  0  0  0  0
  -28.8156  -10.6324   -9.6989 C   0  0  0  0  0  0  0  0  0  0  0  0
  -29.1207  -10.6107  -11.0731 C   0  0  0  0  0  0  0  0  0  0  0  0
  -28.2451   -9.9697  -11.9215 C   0  0  0  0  0  0  0  0  0  0  0  0
  -27.1227   -9.3436  -11.4438 C   0  0  0  0  0  0  0  0  0  0  0  0
  -26.8068   -9.3381  -10.1009 C   0  0  0  0  0  0  0  0  0  0  0  0
  -26.3985   -8.7464  -12.4285 O   0  0  0  0  0  0  0  0  0  0  0  0
  -27.1177   -9.1972  -13.5941 C   0  0  0  0  0  0  0  0  0  0  0  0
  -28.3581   -9.8637  -13.2729 O   0  0  0  0  0  0  0  0  0  0  0  0
 23 24  1  0  0  0
 24 25  1  0  0  0
 24 29  2  0  0  0
 25 26  2  0  0  0
 26 27  1  0  0  0
 27 28  2  0  0  0
 28 19  1  0  0  0
 28 29  1  0  0  0
 19 20  2  0  0  0
 19 21  1  0  0  0
 21 13  1  0  0  0
 21 22  1  0  0  0
 13 14  1  0  0  0
 13 18  2  0  0  0
 14 15  2  0  0  0
 15 16  1  0  0  0
 16 17  2  0  0  0
 17 11  1  0  0  0
 17 18  1  0  0  0
 11 12  1  0  0  0
 11  1  1  0  0  0
  1  2  1  0  0  0
  1  9  2  0  0  0
  2  3  2  0  0  0
  3  4  1  0  0  0
  4  5  1  0  0  0
  4  8  2  0  0  0
  5 30  1  0  0  0
  5  6  2  0  0  0
 30 31  2  0  0  0
 31 32  1  0  0  0
 32 33  1  0  0  0
 32 37  2  0  0  0
 33 34  2  0  0  0
 34 35  1  0  0  0
 35 36  2  0  0  0
 35 40  1  0  0  0
 36 37  1  0  0  0
 36 38  1  0  0  0
 38 39  1  0  0  0
 39 40  1  0  0  0
  6  7  1  0  0  0
  7  8  1  0  0  0
  7 10  1  0  0  0
  8  9  1  0  0  0
M  END
> <minimizedAffinity>
-11.21380

$$$$
