CHEMBL498206


 27 30  0  0  0  0  0  0  0  0999 V2000
  -29.5024   -4.6003   -6.6889 C   0  0  0  0  0  0  0  0  0  0  0  0
  -28.8417   -3.6023   -7.3335 C   0  0  0  0  0  0  0  0  0  0  0  0
  -28.2479   -3.7277   -8.5928 N   0  0  0  0  0  0  0  0  0  0  0  0
  -28.6972   -2.2769   -6.6682 C   0  0  0  0  0  0  0  0  0  0  0  0
  -27.9986   -1.2045   -7.2478 C   0  0  0  0  0  0  0  0  0  0  0  0
  -27.8209   -0.0017   -6.5564 C   0  0  0  0  0  0  0  0  0  0  0  0
  -28.3608    0.1589   -5.2838 C   0  0  0  0  0  0  0  0  0  0  0  0
  -29.0910   -0.8770   -4.7065 C   0  0  0  0  0  0  0  0  0  0  0  0
  -29.2514   -2.0819   -5.3965 C   0  0  0  0  0  0  0  0  0  0  0  0
  -29.9783   -3.1087   -4.7959 N   0  0  0  0  0  0  0  0  0  0  0  0
  -30.1556   -4.3379   -5.3603 C   0  0  0  0  0  0  0  0  0  0  0  0
  -30.8235   -5.1922   -4.7758 O   0  0  0  0  0  0  0  0  0  0  0  0
  -28.2694   -4.7114   -8.9016 H   0  0  0  0  0  0  0  0  0  0  0  0
  -27.2851   -3.4043   -8.5984 H   0  0  0  0  0  0  0  0  0  0  0  0
  -30.4146   -2.9660   -3.8950 H   0  0  0  0  0  0  0  0  0  0  0  0
  -28.6786  -11.2230   -9.8030 C   0  0  0  0  0  0  0  0  0  0  0  0
  -29.3044  -10.0749   -9.0574 C   0  0  0  0  0  0  0  0  0  0  0  0
  -28.5688   -8.8807   -8.9175 C   0  0  0  0  0  0  0  0  0  0  0  0
  -29.1294   -7.8050   -8.2210 C   0  0  0  0  0  0  0  0  0  0  0  0
  -28.6126   -6.5588   -7.9672 N   0  0  0  0  0  0  0  0  0  0  0  0
  -29.5299   -5.9164   -7.2553 C   0  0  0  0  0  0  0  0  0  0  0  0
  -30.6196   -6.7381   -7.0513 N   0  0  0  0  0  0  0  0  0  0  0  0
  -30.3914   -7.9401   -7.6674 C   0  0  0  0  0  0  0  0  0  0  0  0
  -31.1577   -9.0997   -7.7819 C   0  0  0  0  0  0  0  0  0  0  0  0
  -30.6008  -10.1746   -8.5037 C   0  0  0  0  0  0  0  0  0  0  0  0
  -31.4220  -11.4260   -8.6777 C   0  0  0  0  0  0  0  0  0  0  0  0
  -31.4383   -6.4841   -6.5102 H   0  0  0  0  0  0  0  0  0  0  0  0
 16 17  1  0  0  0
 17 18  1  0  0  0
 17 25  2  0  0  0
 18 19  2  0  0  0
 19 20  1  0  0  0
 19 23  1  0  0  0
 20 21  2  0  0  0
 21  1  1  0  0  0
 21 22  1  0  0  0
  1  2  2  0  0  0
  1 11  1  0  0  0
  2  3  1  0  0  0
  2  4  1  0  0  0
  3 13  1  0  0  0
  3 14  1  0  0  0
  4  5  1  0  0  0
  4  9  2  0  0  0
  5  6  2  0  0  0
  6  7  1  0  0  0
  7  8  2  0  0  0
  8  9  1  0  0  0
  9 10  1  0  0  0
 10 11  1  0  0  0
 10 15  1  0  0  0
 11 12  2  0  0  0
 22 23  1  0  0  0
 22 27  1  0  0  0
 23 24  2  0  0  0
 24 25  1  0  0  0
 25 26  1  0  0  0
M  END
> <minimizedAffinity>
-9.40328

$$$$
