CHEMBL1940175


 33 38  0  0  0  0  0  0  0  0999 V2000
  -13.6506    0.5313  -15.5240 C   0  0  0  0  0  0  0  0  0  0  0  0
  -14.3849    1.3347  -16.6167 C   0  0  0  0  0  0  0  0  0  0  0  0
  -14.4136    0.5384  -17.9396 C   0  0  0  0  0  0  0  0  0  0  0  0
  -13.6520    2.6699  -16.8643 C   0  0  0  0  0  0  0  0  0  0  0  0
  -12.2887    2.6805  -17.2113 C   0  0  0  0  0  0  0  0  0  0  0  0
  -11.6188    3.8737  -17.5064 C   0  0  0  0  0  0  0  0  0  0  0  0
  -12.2815    5.1075  -17.4831 C   0  0  0  0  0  0  0  0  0  0  0  0
  -13.6359    5.0990  -17.1320 C   0  0  0  0  0  0  0  0  0  0  0  0
  -14.3126    3.9144  -16.8032 C   0  0  0  0  0  0  0  0  0  0  0  0
  -15.7444    4.0517  -16.3976 C   0  0  0  0  0  0  0  0  0  0  0  0
  -16.2859    5.1504  -16.3369 O   0  0  0  0  0  0  0  0  0  0  0  0
  -16.4255    2.8204  -16.0733 C   0  0  0  0  0  0  0  0  0  0  0  0
  -15.8066    1.5921  -16.1744 C   0  0  0  0  0  0  0  0  0  0  0  0
  -16.7238    0.6345  -15.8180 N   0  0  0  0  0  0  0  0  0  0  0  0
  -17.9171    1.2309  -15.4703 C   0  0  0  0  0  0  0  0  0  0  0  0
  -19.1232    0.6614  -15.0396 C   0  0  0  0  0  0  0  0  0  0  0  0
  -20.1846    1.5296  -14.7488 C   0  0  0  0  0  0  0  0  0  0  0  0
  -20.0431    2.9128  -14.8842 C   0  0  0  0  0  0  0  0  0  0  0  0
  -18.8333    3.4620  -15.3200 C   0  0  0  0  0  0  0  0  0  0  0  0
  -17.7538    2.6093  -15.6186 C   0  0  0  0  0  0  0  0  0  0  0  0
  -16.5591   -0.3635  -15.8056 H   0  0  0  0  0  0  0  0  0  0  0  0
  -11.5450    6.3718  -17.9180 C   0  0  0  0  0  0  0  0  0  0  0  0
  -12.1811    7.6690  -17.3978 C   0  0  0  0  0  0  0  0  0  0  0  0
  -13.4536    8.0289  -18.1621 C   0  0  0  0  0  0  0  0  0  0  0  0
  -13.2671    8.1281  -19.6239 N   0  0  0  0  0  0  0  0  0  0  0  0
  -12.5997    6.9429  -20.1799 C   0  0  0  0  0  0  0  0  0  0  0  0
  -11.3234    6.5458  -19.4282 C   0  0  0  0  0  0  0  0  0  0  0  0
  -14.6246    8.2663  -20.2161 C   0  0  0  0  0  0  0  0  0  0  0  0
  -15.4335    6.9610  -20.2967 C   0  0  0  0  0  0  0  0  0  0  0  0
  -15.6867    7.1935  -21.7148 O   0  0  0  0  0  0  0  0  0  0  0  0
  -14.5384    8.0925  -21.7431 C   0  0  0  0  0  0  0  0  0  0  0  0
  -21.4355    0.9893  -14.3044 C   0  0  0  0  0  0  0  0  0  0  0  0
  -22.4485    0.5597  -13.9361 N   0  0  0  0  0  0  0  0  0  0  0  0
  1  2  1  0  0  0
  2  3  1  0  0  0
  2  4  1  0  0  0
  2 13  1  0  0  0
  4  5  1  0  0  0
  4  9  2  0  0  0
  5  6  2  0  0  0
  6  7  1  0  0  0
  7 22  1  0  0  0
  7  8  2  0  0  0
 22 23  1  0  0  0
 22 27  1  0  0  0
 23 24  1  0  0  0
 24 25  1  0  0  0
 25 28  1  0  0  0
 25 26  1  0  0  0
 28 29  1  0  0  0
 28 31  1  0  0  0
 29 30  1  0  0  0
 30 31  1  0  0  0
 26 27  1  0  0  0
  8  9  1  0  0  0
  9 10  1  0  0  0
 10 11  2  0  0  0
 10 12  1  0  0  0
 12 13  2  0  0  0
 12 20  1  0  0  0
 13 14  1  0  0  0
 14 15  1  0  0  0
 14 21  1  0  0  0
 15 16  1  0  0  0
 15 20  2  0  0  0
 16 17  2  0  0  0
 17 32  1  0  0  0
 17 18  1  0  0  0
 32 33  3  0  0  0
 18 19  2  0  0  0
 19 20  1  0  0  0
M  END
> <minimizedAffinity>
-8.35784

$$$$
