CHEMBL3934355


 37 41  0  0  0  0  0  0  0  0999 V2000
  -28.2493   -2.2087   -8.7290 N   0  0  0  0  0  0  0  0  0  0  0  0
  -27.2870   -1.9758   -9.8027 C   0  0  0  0  0  0  0  0  0  0  0  0
  -26.0482   -1.5587   -9.3795 C   0  0  0  0  0  0  0  0  0  0  0  0
  -25.1627   -1.1132  -10.2966 C   0  0  0  0  0  0  0  0  0  0  0  0
  -25.4760   -0.9245  -11.6070 C   0  0  0  0  0  0  0  0  0  0  0  0
  -24.9315    0.1516  -11.9766 N   0  0  0  0  0  0  0  0  0  0  0  0
  -23.9615   -0.1237  -12.8258 C   0  0  0  0  0  0  0  0  0  0  0  0
  -24.0318   -0.5789  -14.0953 C   0  0  0  0  0  0  0  0  0  0  0  0
  -25.2874   -1.2590  -13.8351 N   0  0  0  0  0  0  0  0  0  0  0  0
  -26.2225   -1.5961  -12.4532 C   0  0  0  0  0  0  0  0  0  0  0  0
  -27.3565   -2.0688  -11.3098 C   0  0  0  0  0  0  0  0  0  0  0  0
  -22.5820    0.2160  -14.3575 C   0  0  0  0  0  0  0  0  0  0  0  0
  -21.2925   -0.1430  -14.9418 C   0  0  0  0  0  0  0  0  0  0  0  0
  -20.3431    0.8238  -14.9447 N   0  0  0  0  0  0  0  0  0  0  0  0
  -20.9336    1.9013  -14.4150 N   0  0  0  0  0  0  0  0  0  0  0  0
  -20.2191    3.1880  -14.3613 C   0  0  0  0  0  0  0  0  0  0  0  0
  -22.2403    1.5848  -14.0378 C   0  0  0  0  0  0  0  0  0  0  0  0
  -28.9725    0.1465   -5.8069 C   0  0  0  0  0  0  0  0  0  0  0  0
  -28.7304   -0.7205   -4.7586 C   0  0  0  0  0  0  0  0  0  0  0  0
  -28.2383   -1.9890   -5.0204 C   0  0  0  0  0  0  0  0  0  0  0  0
  -28.0037   -2.3925   -6.3310 C   0  0  0  0  0  0  0  0  0  0  0  0
  -28.3334   -1.6132   -7.4349 C   0  0  0  0  0  0  0  0  0  0  0  0
  -28.7096   -0.2752   -7.1288 C   0  0  0  0  0  0  0  0  0  0  0  0
  -30.7858    1.6426   -6.2117 C   0  0  0  0  0  0  0  0  0  0  0  0
  -29.4916    1.4080   -5.6485 O   0  0  0  0  0  0  0  0  0  0  0  0
  -27.9804   -2.9386   -4.0704 O   0  0  0  0  0  0  0  0  0  0  0  0
  -28.7566   -2.7989   -2.8890 C   0  0  0  0  0  0  0  0  0  0  0  0
  -29.0447   -3.5074   -8.9096 C   0  0  0  0  0  0  0  0  0  0  0  0
  -28.4668   -4.6028   -7.9791 C   0  0  0  0  0  0  0  0  0  0  0  0
  -29.3220   -5.7376   -7.5759 N   0  0  0  0  0  0  0  0  0  0  0  0
  -28.6199   -6.7546   -6.7736 C   0  0  0  0  0  0  0  0  0  0  0  0
  -28.1862   -6.2312   -5.4014 C   0  0  0  0  0  0  0  0  0  0  0  0
  -29.3212   -5.7335   -4.6696 N   0  0  0  0  0  0  0  0  0  0  0  0
  -30.3767   -5.1197   -5.2855 C   0  0  0  0  0  0  0  0  0  0  0  0
  -31.2475   -4.5868   -4.5964 O   0  0  0  0  0  0  0  0  0  0  0  0
  -30.5012   -5.2015   -6.8188 C   0  0  0  0  0  0  0  0  0  0  0  0
  -29.2994   -5.6625   -3.6597 H   0  0  0  0  0  0  0  0  0  0  0  0
 24 25  1  0  0  0
 25 18  1  0  0  0
 18 19  1  0  0  0
 18 23  2  0  0  0
 19 20  2  0  0  0
 20 26  1  0  0  0
 20 21  1  0  0  0
 26 27  1  0  0  0
 21 22  2  0  0  0
 22  1  1  0  0  0
 22 23  1  0  0  0
  1 28  1  0  0  0
  1  2  1  0  0  0
 28 29  1  0  0  0
 29 30  1  0  0  0
 30 31  1  0  0  0
 30 36  1  0  0  0
 31 32  1  0  0  0
 32 33  1  0  0  0
 33 34  1  0  0  0
 33 37  1  0  0  0
 34 35  2  0  0  0
 34 36  1  0  0  0
  2  3  1  0  0  0
  2 11  2  0  0  0
  3  4  2  0  0  0
  4  5  1  0  0  0
  5  6  1  0  0  0
  5 10  2  0  0  0
  6  7  2  0  0  0
  7  8  1  0  0  0
  8 12  1  0  0  0
  8  9  2  0  0  0
 12 13  1  0  0  0
 12 17  2  0  0  0
 13 14  2  0  0  0
 14 15  1  0  0  0
 15 16  1  0  0  0
 15 17  1  0  0  0
  9 10  1  0  0  0
 10 11  1  0  0  0
M  END
> <minimizedAffinity>
-6.85119

$$$$
