CHEMBL3220321


 43 46  0  0  0  0  0  0  0  0999 V2000
  -14.5748    2.0144  -15.8256 C   0  0  0  0  0  0  0  0  0  0  0  0
  -14.2993    0.7097  -16.2921 C   0  0  0  0  0  0  0  0  0  0  0  0
  -13.0210    0.1747  -16.4415 C   0  0  0  0  0  0  0  0  0  0  0  0
  -11.9409    1.0152  -16.1918 C   0  0  0  0  0  0  0  0  0  0  0  0
  -12.1542    2.3510  -15.7877 C   0  0  0  0  0  0  0  0  0  0  0  0
  -13.4650    2.8545  -15.5880 C   0  0  0  0  0  0  0  0  0  0  0  0
  -18.2743    1.6551  -14.8680 C   0  0  0  0  0  0  0  0  0  0  0  0
  -16.8911    1.4507  -14.9833 C   0  0  0  0  0  0  0  0  0  0  0  0
  -16.0160    2.3690  -15.6215 C   0  0  0  0  0  0  0  0  0  0  0  0
  -16.5972    3.5421  -16.1131 C   0  0  0  0  0  0  0  0  0  0  0  0
  -17.9669    3.7986  -15.9461 C   0  0  0  0  0  0  0  0  0  0  0  0
  -18.8091    2.8714  -15.3110 C   0  0  0  0  0  0  0  0  0  0  0  0
  -20.2434    3.2520  -15.1098 C   0  0  0  0  0  0  0  0  0  0  0  0
  -21.2039    3.1769  -16.2852 C   0  0  0  0  0  0  0  0  0  0  0  0
  -20.6450    3.5849  -13.9101 N   0  0  0  0  0  0  0  0  0  0  0  0
  -22.0132    3.8766  -13.8915 O   0  0  0  0  0  0  0  0  0  0  0  0
  -22.1633    4.0910  -12.9542 H   0  0  0  0  0  0  0  0  0  0  0  0
  -19.8312   -0.0609  -15.4375 C   0  0  0  0  0  0  0  0  0  0  0  0
  -19.1459    0.6892  -14.4414 O   0  0  0  0  0  0  0  0  0  0  0  0
  -12.8012   -1.1862  -16.7899 N   0  0  0  0  0  0  0  0  0  0  0  0
  -13.0066   -2.2752  -15.9525 C   0  0  0  0  0  0  0  0  0  0  0  0
  -13.4881   -2.2216  -14.8257 O   0  0  0  0  0  0  0  0  0  0  0  0
  -12.5606   -3.4708  -16.5040 N   0  0  0  0  0  0  0  0  0  0  0  0
  -12.5199   -1.3851  -17.7382 H   0  0  0  0  0  0  0  0  0  0  0  0
  -11.6997   -3.3969  -17.0257 H   0  0  0  0  0  0  0  0  0  0  0  0
  -12.7626   -4.6817  -15.7892 C   0  0  0  0  0  0  0  0  0  0  0  0
  -13.9148   -5.4470  -15.9856 C   0  0  0  0  0  0  0  0  0  0  0  0
  -14.1509   -6.5936  -15.2233 C   0  0  0  0  0  0  0  0  0  0  0  0
  -13.2344   -6.9949  -14.2513 C   0  0  0  0  0  0  0  0  0  0  0  0
  -12.0815   -6.2287  -14.0540 C   0  0  0  0  0  0  0  0  0  0  0  0
  -11.8267   -5.0940  -14.8408 C   0  0  0  0  0  0  0  0  0  0  0  0
  -13.3877   -8.0841  -13.4259 O   0  0  0  0  0  0  0  0  0  0  0  0
  -14.3589   -7.9042  -12.3833 C   0  0  0  0  0  0  0  0  0  0  0  0
  -14.1718   -6.5475  -11.6769 C   0  0  0  0  0  0  0  0  0  0  0  0
  -15.4521   -5.8878  -11.3465 N   0  0  0  0  0  0  0  0  0  0  0  0
  -16.4094   -5.8354  -12.4634 C   0  0  0  0  0  0  0  0  0  0  0  0
  -16.2836   -4.4454  -13.0476 C   0  0  0  0  0  0  0  0  0  0  0  0
  -16.0741   -3.6014  -11.8122 C   0  0  0  0  0  0  0  0  0  0  0  0
  -15.2438   -4.4953  -10.8987 C   0  0  0  0  0  0  0  0  0  0  0  0
  -11.0777    3.1411  -15.4573 O   0  0  0  0  0  0  0  0  0  0  0  0
  -10.6992    3.0775  -14.0831 C   0  0  0  0  0  0  0  0  0  0  0  0
  -13.7495    4.1087  -15.1009 O   0  0  0  0  0  0  0  0  0  0  0  0
  -13.4197    5.2225  -15.9227 C   0  0  0  0  0  0  0  0  0  0  0  0
 18 19  1  0  0  0
 19  7  1  0  0  0
  7  8  1  0  0  0
  7 12  2  0  0  0
  8  9  2  0  0  0
  9  1  1  0  0  0
  9 10  1  0  0  0
  1  2  1  0  0  0
  1  6  2  0  0  0
  2  3  2  0  0  0
  3 20  1  0  0  0
  3  4  1  0  0  0
 20 21  1  0  0  0
 20 24  1  0  0  0
 21 22  2  0  0  0
 21 23  1  0  0  0
 23 26  1  0  0  0
 23 25  1  0  0  0
 26 27  1  0  0  0
 26 31  2  0  0  0
 27 28  2  0  0  0
 28 29  1  0  0  0
 29 32  1  0  0  0
 29 30  2  0  0  0
 32 33  1  0  0  0
 33 34  1  0  0  0
 34 35  1  0  0  0
 35 36  1  0  0  0
 35 39  1  0  0  0
 36 37  1  0  0  0
 37 38  1  0  0  0
 38 39  1  0  0  0
 30 31  1  0  0  0
  4  5  2  0  0  0
  5 40  1  0  0  0
  5  6  1  0  0  0
 40 41  1  0  0  0
  6 42  1  0  0  0
 42 43  1  0  0  0
 10 11  2  0  0  0
 11 12  1  0  0  0
 12 13  1  0  0  0
 13 14  1  0  0  0
 13 15  2  0  0  0
 15 16  1  0  0  0
 16 17  1  0  0  0
M  END
> <minimizedAffinity>
-7.02146

$$$$
