CHEMBL436137


 35 39  0  0  0  0  0  0  0  0999 V2000
  -28.8855   -3.3311   -5.9172 C   0  0  0  0  0  0  0  0  0  0  0  0
  -28.1545   -4.0381   -4.9517 C   0  0  0  0  0  0  0  0  0  0  0  0
  -28.0343   -5.4319   -4.9737 C   0  0  0  0  0  0  0  0  0  0  0  0
  -27.0188   -6.1018   -4.0830 C   0  0  0  0  0  0  0  0  0  0  0  0
  -28.8159   -6.1760   -5.8446 C   0  0  0  0  0  0  0  0  0  0  0  0
  -28.8057   -7.5086   -5.7690 N   0  0  0  0  0  0  0  0  0  0  0  0
  -29.5222   -8.2093   -6.6584 C   0  0  0  0  0  0  0  0  0  0  0  0
  -30.3286   -7.6113   -7.5554 N   0  0  0  0  0  0  0  0  0  0  0  0
  -30.3486   -6.2439   -7.6371 N   0  0  0  0  0  0  0  0  0  0  0  0
  -29.5934   -5.5228   -6.7989 C   0  0  0  0  0  0  0  0  0  0  0  0
  -29.5435   -4.1260   -6.8659 C   0  0  0  0  0  0  0  0  0  0  0  0
  -27.6155   -1.6712   -8.1827 C   0  0  0  0  0  0  0  0  0  0  0  0
  -28.3333   -1.0683   -6.9943 C   0  0  0  0  0  0  0  0  0  0  0  0
  -28.3730    0.3402   -6.9840 C   0  0  0  0  0  0  0  0  0  0  0  0
  -29.0409    1.0348   -5.9921 C   0  0  0  0  0  0  0  0  0  0  0  0
  -29.6681    0.3331   -4.9782 C   0  0  0  0  0  0  0  0  0  0  0  0
  -29.6176   -1.0745   -4.9175 C   0  0  0  0  0  0  0  0  0  0  0  0
  -30.3221   -1.6758   -3.7198 C   0  0  0  0  0  0  0  0  0  0  0  0
  -28.9435   -1.8254   -5.9382 C   0  0  0  0  0  0  0  0  0  0  0  0
  -29.3831   -9.5983   -6.7063 N   0  0  0  0  0  0  0  0  0  0  0  0
  -30.2248  -10.0100   -7.0870 H   0  0  0  0  0  0  0  0  0  0  0  0
  -28.2023  -10.3200   -6.9740 C   0  0  0  0  0  0  0  0  0  0  0  0
  -27.9329  -11.5698   -6.4034 C   0  0  0  0  0  0  0  0  0  0  0  0
  -26.7833  -12.2893   -6.7089 C   0  0  0  0  0  0  0  0  0  0  0  0
  -25.8829  -11.7928   -7.6382 C   0  0  0  0  0  0  0  0  0  0  0  0
  -26.1165  -10.5456   -8.2151 C   0  0  0  0  0  0  0  0  0  0  0  0
  -27.2794   -9.8229   -7.9011 C   0  0  0  0  0  0  0  0  0  0  0  0
  -24.7588  -12.4648   -8.0457 O   0  0  0  0  0  0  0  0  0  0  0  0
  -23.5290  -11.8007   -7.7067 C   0  0  0  0  0  0  0  0  0  0  0  0
  -23.1613  -12.1402   -6.2589 C   0  0  0  0  0  0  0  0  0  0  0  0
  -22.7927  -10.9746   -5.4282 N   0  0  0  0  0  0  0  0  0  0  0  0
  -23.1408  -11.2245   -4.0169 C   0  0  0  0  0  0  0  0  0  0  0  0
  -24.6054  -10.8384   -3.9102 C   0  0  0  0  0  0  0  0  0  0  0  0
  -24.7098   -9.6255   -4.8149 C   0  0  0  0  0  0  0  0  0  0  0  0
  -23.5197   -9.7363   -5.7626 C   0  0  0  0  0  0  0  0  0  0  0  0
 12 13  1  0  0  0
 13 14  1  0  0  0
 13 19  2  0  0  0
 14 15  2  0  0  0
 15 16  1  0  0  0
 16 17  2  0  0  0
 17 18  1  0  0  0
 17 19  1  0  0  0
 19  1  1  0  0  0
  1  2  1  0  0  0
  1 11  2  0  0  0
  2  3  2  0  0  0
  3  4  1  0  0  0
  3  5  1  0  0  0
  5  6  1  0  0  0
  5 10  2  0  0  0
  6  7  2  0  0  0
  7 20  1  0  0  0
  7  8  1  0  0  0
 20 22  1  0  0  0
 20 21  1  0  0  0
 22 23  1  0  0  0
 22 27  2  0  0  0
 23 24  2  0  0  0
 24 25  1  0  0  0
 25 28  1  0  0  0
 25 26  2  0  0  0
 28 29  1  0  0  0
 29 30  1  0  0  0
 30 31  1  0  0  0
 31 32  1  0  0  0
 31 35  1  0  0  0
 32 33  1  0  0  0
 33 34  1  0  0  0
 34 35  1  0  0  0
 26 27  1  0  0  0
  8  9  2  0  0  0
  9 10  1  0  0  0
 10 11  1  0  0  0
M  END
> <minimizedAffinity>
-7.32602

$$$$
