CHEMBL3706821


 29 31  0  0  0  0  0  0  0  0999 V2000
  -27.9515   -2.4049   -6.4899 C   0  0  0  0  0  0  0  0  0  0  0  0
  -28.2393   -3.0618   -5.2712 C   0  0  0  0  0  0  0  0  0  0  0  0
  -28.9715   -4.2371   -5.1735 C   0  0  0  0  0  0  0  0  0  0  0  0
  -29.2600   -4.7569   -3.9710 N   0  0  0  0  0  0  0  0  0  0  0  0
  -30.0076   -5.8697   -3.9530 C   0  0  0  0  0  0  0  0  0  0  0  0
  -30.4696   -6.5263   -5.0264 N   0  0  0  0  0  0  0  0  0  0  0  0
  -30.1506   -6.0020   -6.2280 C   0  0  0  0  0  0  0  0  0  0  0  0
  -29.4127   -4.8216   -6.3555 C   0  0  0  0  0  0  0  0  0  0  0  0
  -29.1292   -4.1898   -7.5871 C   0  0  0  0  0  0  0  0  0  0  0  0
  -28.4023   -2.9913   -7.6781 C   0  0  0  0  0  0  0  0  0  0  0  0
  -30.5913   -6.6766   -7.3977 N   0  0  0  0  0  0  0  0  0  0  0  0
  -30.7523   -5.9963   -8.1478 H   0  0  0  0  0  0  0  0  0  0  0  0
  -29.9659   -7.8156   -7.8929 C   0  0  0  0  0  0  0  0  0  0  0  0
  -28.7376   -7.8523   -8.4247 C   0  0  0  0  0  0  0  0  0  0  0  0
  -28.1510   -9.0750   -8.9723 C   0  0  0  0  0  0  0  0  0  0  0  0
  -26.9717   -9.0921   -9.3023 O   0  0  0  0  0  0  0  0  0  0  0  0
  -29.0470  -10.2510   -9.1300 C   0  0  0  0  0  0  0  0  0  0  0  0
  -28.4333  -11.5536  -10.0878 Cl  0  0  0  0  0  0  0  0  0  0  0  0
  -30.2531  -10.2642   -8.5538 C   0  0  0  0  0  0  0  0  0  0  0  0
  -31.3479  -11.5975   -8.6767 Cl  0  0  0  0  0  0  0  0  0  0  0  0
  -30.7351   -9.0959   -7.7681 C   0  0  0  0  0  0  0  0  0  0  0  0
  -31.7395   -9.1251   -7.0628 O   0  0  0  0  0  0  0  0  0  0  0  0
  -28.4090   -2.5431   -8.9658 O   0  0  0  0  0  0  0  0  0  0  0  0
  -27.2459   -2.0039   -9.5664 C   0  0  0  0  0  0  0  0  0  0  0  0
  -27.2891   -1.2211   -6.2599 O   0  0  0  0  0  0  0  0  0  0  0  0
  -27.9981   -0.0208   -6.4937 C   0  0  0  0  0  0  0  0  0  0  0  0
  -28.4999    0.6540   -5.2252 C   0  0  0  0  0  0  0  0  0  0  0  0
  -30.5858    1.3965   -6.0916 C   0  0  0  0  0  0  0  0  0  0  0  0
  -29.9205    0.4797   -5.2446 O   0  0  0  0  0  0  0  0  0  0  0  0
 28 29  1  0  0  0
 29 27  1  0  0  0
 27 26  1  0  0  0
 26 25  1  0  0  0
 25  1  1  0  0  0
  1  2  1  0  0  0
  1 10  2  0  0  0
  2  3  2  0  0  0
  3  4  1  0  0  0
  3  8  1  0  0  0
  4  5  2  0  0  0
  5  6  1  0  0  0
  6  7  2  0  0  0
  7 11  1  0  0  0
  7  8  1  0  0  0
 11 13  1  0  0  0
 11 12  1  0  0  0
 13 14  2  0  0  0
 13 21  1  0  0  0
 14 15  1  0  0  0
 15 16  2  0  0  0
 15 17  1  0  0  0
 17 18  1  0  0  0
 17 19  2  0  0  0
 19 20  1  0  0  0
 19 21  1  0  0  0
 21 22  2  0  0  0
  8  9  2  0  0  0
  9 10  1  0  0  0
 10 23  1  0  0  0
 23 24  1  0  0  0
M  END
> <minimizedAffinity>
-7.73941

$$$$
