CHEMBL411630


 36 40  0  0  0  0  0  0  0  0999 V2000
  -27.6614  -10.9160   -4.4638 C   0  0  0  0  0  0  0  0  0  0  0  0
  -27.5824   -9.7431   -3.7216 C   0  0  0  0  0  0  0  0  0  0  0  0
  -28.1856   -8.5658   -4.1878 C   0  0  0  0  0  0  0  0  0  0  0  0
  -28.8616   -8.5203   -5.4177 C   0  0  0  0  0  0  0  0  0  0  0  0
  -28.9475   -9.7245   -6.1446 C   0  0  0  0  0  0  0  0  0  0  0  0
  -28.3344  -10.8991   -5.6866 C   0  0  0  0  0  0  0  0  0  0  0  0
  -29.6188   -9.8618   -7.3372 O   0  0  0  0  0  0  0  0  0  0  0  0
  -29.8161   -8.6163   -8.0019 C   0  0  0  0  0  0  0  0  0  0  0  0
  -30.3866   -7.5686   -7.0626 C   0  0  0  0  0  0  0  0  0  0  0  0
  -29.4517   -7.3108   -5.9584 N   0  0  0  0  0  0  0  0  0  0  0  0
  -29.0330   -6.0387   -5.5430 C   0  0  0  0  0  0  0  0  0  0  0  0
  -28.1413   -5.8785   -4.7092 O   0  0  0  0  0  0  0  0  0  0  0  0
  -29.6549   -4.9608   -6.1562 N   0  0  0  0  0  0  0  0  0  0  0  0
  -30.5643   -5.1162   -6.5564 H   0  0  0  0  0  0  0  0  0  0  0  0
  -29.3100   -3.5941   -5.9756 C   0  0  0  0  0  0  0  0  0  0  0  0
  -28.3857   -2.9151   -6.7747 C   0  0  0  0  0  0  0  0  0  0  0  0
  -27.9903   -1.6093   -6.4712 C   0  0  0  0  0  0  0  0  0  0  0  0
  -28.5389   -0.9397   -5.3781 C   0  0  0  0  0  0  0  0  0  0  0  0
  -28.0477    0.4239   -4.9948 C   0  0  0  0  0  0  0  0  0  0  0  0
  -29.5297   -1.5797   -4.6264 C   0  0  0  0  0  0  0  0  0  0  0  0
  -29.9154   -2.8943   -4.9256 C   0  0  0  0  0  0  0  0  0  0  0  0
  -27.0217  -12.0239   -3.9401 O   0  0  0  0  0  0  0  0  0  0  0  0
  -22.4253  -11.4431   -6.0305 C   0  0  0  0  0  0  0  0  0  0  0  0
  -22.3013  -11.4816   -4.6322 C   0  0  0  0  0  0  0  0  0  0  0  0
  -23.3930  -11.6055   -3.7857 C   0  0  0  0  0  0  0  0  0  0  0  0
  -23.1475  -11.7091   -2.4686 N   0  0  0  0  0  0  0  0  0  0  0  0
  -24.1956  -11.8631   -1.6376 C   0  0  0  0  0  0  0  0  0  0  0  0
  -25.5025  -11.9330   -2.0652 C   0  0  0  0  0  0  0  0  0  0  0  0
  -25.7443  -11.8777   -3.4331 C   0  0  0  0  0  0  0  0  0  0  0  0
  -24.6781  -11.6507   -4.3343 C   0  0  0  0  0  0  0  0  0  0  0  0
  -24.8180  -11.4833   -5.7368 C   0  0  0  0  0  0  0  0  0  0  0  0
  -23.7056  -11.3823   -6.5913 C   0  0  0  0  0  0  0  0  0  0  0  0
  -20.8687  -10.1603   -7.2773 C   0  0  0  0  0  0  0  0  0  0  0  0
  -21.3145  -11.4473   -6.8345 O   0  0  0  0  0  0  0  0  0  0  0  0
  -24.0753  -11.2596   -7.9017 O   0  0  0  0  0  0  0  0  0  0  0  0
  -25.3478  -11.7136   -8.3337 C   0  0  0  0  0  0  0  0  0  0  0  0
 33 34  1  0  0  0
 34 23  1  0  0  0
 23 24  1  0  0  0
 23 32  2  0  0  0
 24 25  2  0  0  0
 25 26  1  0  0  0
 25 30  1  0  0  0
 26 27  2  0  0  0
 27 28  1  0  0  0
 28 29  2  0  0  0
 29 22  1  0  0  0
 29 30  1  0  0  0
 22  1  1  0  0  0
  1  2  1  0  0  0
  1  6  2  0  0  0
  2  3  2  0  0  0
  3  4  1  0  0  0
  4  5  2  0  0  0
  4 10  1  0  0  0
  5  6  1  0  0  0
  5  7  1  0  0  0
  7  8  1  0  0  0
  8  9  1  0  0  0
  9 10  1  0  0  0
 10 11  1  0  0  0
 11 12  2  0  0  0
 11 13  1  0  0  0
 13 15  1  0  0  0
 13 14  1  0  0  0
 15 16  1  0  0  0
 15 21  2  0  0  0
 16 17  2  0  0  0
 17 18  1  0  0  0
 18 19  1  0  0  0
 18 20  2  0  0  0
 20 21  1  0  0  0
 30 31  2  0  0  0
 31 32  1  0  0  0
 32 35  1  0  0  0
 35 36  1  0  0  0
M  END
> <minimizedAffinity>
-9.12429

$$$$
