CHEMBL1982506


 20 22  0  0  0  0  0  0  0  0999 V2000
  -27.9438   -1.8958   -8.2907 C   0  0  0  0  0  0  0  0  0  0  0  0
  -28.2688   -3.2440   -8.4829 C   0  0  0  0  0  0  0  0  0  0  0  0
  -28.5366   -4.0909   -7.4010 C   0  0  0  0  0  0  0  0  0  0  0  0
  -28.8093   -5.4620   -7.5925 C   0  0  0  0  0  0  0  0  0  0  0  0
  -29.0456   -6.3566   -6.6046 N   0  0  0  0  0  0  0  0  0  0  0  0
  -29.0148   -5.8236   -5.3753 C   0  0  0  0  0  0  0  0  0  0  0  0
  -28.7809   -4.4997   -5.0666 C   0  0  0  0  0  0  0  0  0  0  0  0
  -28.5233   -3.5734   -6.0847 C   0  0  0  0  0  0  0  0  0  0  0  0
  -28.2471   -2.1910   -5.9032 C   0  0  0  0  0  0  0  0  0  0  0  0
  -27.9494   -1.3561   -6.9939 C   0  0  0  0  0  0  0  0  0  0  0  0
  -28.8334   -4.4018   -3.6034 C   0  0  0  0  0  0  0  0  0  0  0  0
  -28.6807   -3.3846   -2.9552 O   0  0  0  0  0  0  0  0  0  0  0  0
  -29.0753   -5.6511   -3.1270 N   0  0  0  0  0  0  0  0  0  0  0  0
  -29.1911   -6.5719   -4.1204 C   0  0  0  0  0  0  0  0  0  0  0  0
  -29.3803   -7.7652   -3.9893 O   0  0  0  0  0  0  0  0  0  0  0  0
  -29.1461   -5.8838   -2.1462 H   0  0  0  0  0  0  0  0  0  0  0  0
  -26.8223   -1.8461  -10.3946 C   0  0  0  0  0  0  0  0  0  0  0  0
  -27.7008   -1.2217   -9.4626 O   0  0  0  0  0  0  0  0  0  0  0  0
  -27.6771   -0.0227   -6.8895 O   0  0  0  0  0  0  0  0  0  0  0  0
  -28.6965    0.8798   -6.5018 C   0  0  0  0  0  0  0  0  0  0  0  0
 17 18  1  0  0  0
 18  1  1  0  0  0
  1  2  1  0  0  0
  1 10  2  0  0  0
  2  3  2  0  0  0
  3  4  1  0  0  0
  3  8  1  0  0  0
  4  5  2  0  0  0
  5  6  1  0  0  0
  6  7  2  0  0  0
  6 14  1  0  0  0
  7  8  1  0  0  0
  7 11  1  0  0  0
  8  9  2  0  0  0
  9 10  1  0  0  0
 10 19  1  0  0  0
 19 20  1  0  0  0
 11 12  2  0  0  0
 11 13  1  0  0  0
 13 14  1  0  0  0
 13 16  1  0  0  0
 14 15  2  0  0  0
M  END
> <minimizedAffinity>
-7.29508

$$$$
