CHEMBL4099337


 29 30  0  0  0  0  0  0  0  0999 V2000
  -13.6234   -7.4472  -17.7754 C   0  0  0  0  0  0  0  0  0  0  0  0
  -13.3434   -8.7499  -17.3705 C   0  0  0  0  0  0  0  0  0  0  0  0
  -13.1769   -9.0301  -16.0096 C   0  0  0  0  0  0  0  0  0  0  0  0
  -12.8939  -10.3096  -15.6154 O   0  0  0  0  0  0  0  0  0  0  0  0
  -13.2846   -8.0137  -15.0523 C   0  0  0  0  0  0  0  0  0  0  0  0
  -13.5625   -6.6870  -15.4506 C   0  0  0  0  0  0  0  0  0  0  0  0
  -13.7096   -6.4266  -16.8240 C   0  0  0  0  0  0  0  0  0  0  0  0
  -13.5547   -5.5627  -14.4422 C   0  0  0  0  0  0  0  0  0  0  0  0
  -14.3722   -4.3011  -14.7393 C   0  0  0  0  0  0  0  0  0  0  0  0
  -14.1446   -3.1336  -13.7610 C   0  0  0  0  0  0  0  0  0  0  0  0
  -14.1086   -3.4795  -12.2564 C   0  0  0  0  0  0  0  0  0  0  0  0
  -15.0101   -2.5737  -11.6038 O   0  0  0  0  0  0  0  0  0  0  0  0
  -12.6882   -3.3700  -11.6290 C   0  0  0  0  0  0  0  0  0  0  0  0
  -11.6719   -3.8589  -12.5000 O   0  0  0  0  0  0  0  0  0  0  0  0
  -12.6153   -4.0154  -10.2251 C   0  0  0  0  0  0  0  0  0  0  0  0
  -13.3238   -3.6357   -9.2938 O   0  0  0  0  0  0  0  0  0  0  0  0
  -11.6232   -5.1485  -10.0139 C   0  0  0  0  0  0  0  0  0  0  0  0
  -12.1910   -6.4720  -10.5221 C   0  0  0  0  0  0  0  0  0  0  0  0
  -11.0978   -7.4054  -11.0540 C   0  0  0  0  0  0  0  0  0  0  0  0
  -11.7009   -8.6202  -11.7808 C   0  0  0  0  0  0  0  0  0  0  0  0
  -10.7318   -9.7976  -11.7514 C   0  0  0  0  0  0  0  0  0  0  0  0
  -11.9308   -8.2639  -13.1683 O   0  0  0  0  0  0  0  0  0  0  0  0
  -13.2073   -8.3725  -13.6171 C   0  0  0  0  0  0  0  0  0  0  0  0
  -14.1985   -8.6321  -12.9511 O   0  0  0  0  0  0  0  0  0  0  0  0
  -12.8850  -10.8946  -16.3913 H   0  0  0  0  0  0  0  0  0  0  0  0
  -14.6462   -1.6743  -11.6609 H   0  0  0  0  0  0  0  0  0  0  0  0
  -11.7683   -4.8285  -12.5748 H   0  0  0  0  0  0  0  0  0  0  0  0
  -14.4460   -5.7858  -19.2537 C   0  0  0  0  0  0  0  0  0  0  0  0
  -13.7821   -7.0302  -19.0697 O   0  0  0  0  0  0  0  0  0  0  0  0
 28 29  1  0  0  0
 29  1  1  0  0  0
  1  2  1  0  0  0
  1  7  2  0  0  0
  2  3  2  0  0  0
  3  4  1  0  0  0
  3  5  1  0  0  0
  4 25  1  0  0  0
  5  6  2  0  0  0
  5 23  1  0  0  0
  6  7  1  0  0  0
  6  8  1  0  0  0
  8  9  1  0  0  0
  9 10  1  0  0  0
 10 11  1  0  0  0
 11 13  1  0  0  0
 11 12  1  0  0  0
 12 26  1  0  0  0
 13 14  1  0  0  0
 13 15  1  0  0  0
 14 27  1  0  0  0
 15 16  2  0  0  0
 15 17  1  0  0  0
 17 18  1  0  0  0
 18 19  1  0  0  0
 19 20  1  0  0  0
 20 22  1  0  0  0
 20 21  1  0  0  0
 22 23  1  0  0  0
 23 24  2  0  0  0
M  END
> <minimizedAffinity>
-7.16588

$$$$
