CHEMBL299032


 31 34  0  0  0  0  0  0  0  0999 V2000
  -29.7236   -9.3376   -7.4584 C   0  0  0  0  0  0  0  0  0  0  0  0
  -28.9240  -10.1024   -6.5801 C   0  0  0  0  0  0  0  0  0  0  0  0
  -28.1717   -9.4757   -5.5891 C   0  0  0  0  0  0  0  0  0  0  0  0
  -28.2603   -8.1014   -5.5047 C   0  0  0  0  0  0  0  0  0  0  0  0
  -29.0701   -7.3294   -6.3497 C   0  0  0  0  0  0  0  0  0  0  0  0
  -29.8241   -7.9404   -7.3395 C   0  0  0  0  0  0  0  0  0  0  0  0
  -28.8932   -5.9356   -5.9083 C   0  0  0  0  0  0  0  0  0  0  0  0
  -29.5203   -4.8556   -6.4005 C   0  0  0  0  0  0  0  0  0  0  0  0
  -27.8972   -5.9596   -4.7721 C   0  0  0  0  0  0  0  0  0  0  0  0
  -27.4284   -5.0340   -4.1389 O   0  0  0  0  0  0  0  0  0  0  0  0
  -27.5864   -7.2964   -4.5971 N   0  0  0  0  0  0  0  0  0  0  0  0
  -26.9365   -7.6071   -3.8914 H   0  0  0  0  0  0  0  0  0  0  0  0
  -29.3573   -3.5699   -5.8384 C   0  0  0  0  0  0  0  0  0  0  0  0
  -29.9694   -3.2732   -4.6414 N   0  0  0  0  0  0  0  0  0  0  0  0
  -29.6960   -1.9729   -4.2859 C   0  0  0  0  0  0  0  0  0  0  0  0
  -28.9075   -1.4208   -5.2739 C   0  0  0  0  0  0  0  0  0  0  0  0
  -28.6894   -2.4345   -6.2442 C   0  0  0  0  0  0  0  0  0  0  0  0
  -27.8754   -2.1432   -7.4467 C   0  0  0  0  0  0  0  0  0  0  0  0
  -27.9126   -0.6316   -7.7054 C   0  0  0  0  0  0  0  0  0  0  0  0
  -27.6492    0.1743   -6.5268 O   0  0  0  0  0  0  0  0  0  0  0  0
  -28.3598   -0.0758   -5.3734 C   0  0  0  0  0  0  0  0  0  0  0  0
  -28.4651    0.7646   -4.4883 O   0  0  0  0  0  0  0  0  0  0  0  0
  -30.5575   -3.8990   -4.1134 H   0  0  0  0  0  0  0  0  0  0  0  0
  -30.6252  -10.2100   -8.7287 S   0  0  0  0  0  0  0  0  0  0  0  0
  -31.9977   -9.7561   -8.7073 O   0  0  0  0  0  0  0  0  0  0  0  0
  -30.2652  -11.6010   -8.5831 O   0  0  0  0  0  0  0  0  0  0  0  0
  -29.8888   -9.6462  -10.1433 N   0  0  0  0  0  0  0  0  0  0  0  0
  -30.5344   -9.1393  -10.7464 H   0  0  0  0  0  0  0  0  0  0  0  0
  -28.8834  -10.2242  -12.3463 C   0  0  0  0  0  0  0  0  0  0  0  0
  -28.8937  -10.4826  -10.8478 C   0  0  0  0  0  0  0  0  0  0  0  0
  -27.5133  -10.1766  -10.2634 C   0  0  0  0  0  0  0  0  0  0  0  0
 29 30  1  0  0  0
 30 31  1  0  0  0
 30 27  1  0  0  0
 27 24  1  0  0  0
 27 28  1  0  0  0
 24 25  2  0  0  0
 24 26  2  0  0  0
 24  1  1  0  0  0
  1  2  1  0  0  0
  1  6  2  0  0  0
  2  3  2  0  0  0
  3  4  1  0  0  0
  4  5  2  0  0  0
  4 11  1  0  0  0
  5  6  1  0  0  0
  5  7  1  0  0  0
  7  8  2  0  0  0
  7  9  1  0  0  0
  8 13  1  0  0  0
 13 14  1  0  0  0
 13 17  2  0  0  0
 14 15  1  0  0  0
 14 23  1  0  0  0
 15 16  2  0  0  0
 16 17  1  0  0  0
 16 21  1  0  0  0
 17 18  1  0  0  0
 18 19  1  0  0  0
 19 20  1  0  0  0
 20 21  1  0  0  0
 21 22  2  0  0  0
  9 10  2  0  0  0
  9 11  1  0  0  0
 11 12  1  0  0  0
M  END
> <minimizedAffinity>
-9.19715

$$$$
