CHEMBL3973263


 37 41  0  0  0  0  0  0  0  0999 V2000
  -27.9305   -2.1908   -8.4285 N   0  0  0  0  0  0  0  0  0  0  0  0
  -27.4696   -1.5795   -9.6678 C   0  0  0  0  0  0  0  0  0  0  0  0
  -28.3334   -1.7131  -10.7531 C   0  0  0  0  0  0  0  0  0  0  0  0
  -27.8277   -1.7844  -12.0409 C   0  0  0  0  0  0  0  0  0  0  0  0
  -26.5106   -1.5307  -12.3014 C   0  0  0  0  0  0  0  0  0  0  0  0
  -26.1393   -1.8301  -13.5602 N   0  0  0  0  0  0  0  0  0  0  0  0
  -24.9257   -1.4142  -13.9370 C   0  0  0  0  0  0  0  0  0  0  0  0
  -24.1309   -0.6372  -13.1205 C   0  0  0  0  0  0  0  0  0  0  0  0
  -24.4463   -0.4576  -11.7802 N   0  0  0  0  0  0  0  0  0  0  0  0
  -25.6495   -0.9834  -11.3235 C   0  0  0  0  0  0  0  0  0  0  0  0
  -26.1610   -1.0901   -9.9620 C   0  0  0  0  0  0  0  0  0  0  0  0
  -23.0865    0.1263  -13.8040 C   0  0  0  0  0  0  0  0  0  0  0  0
  -21.8405   -0.3284  -14.3172 C   0  0  0  0  0  0  0  0  0  0  0  0
  -21.0022    0.6699  -14.6242 N   0  0  0  0  0  0  0  0  0  0  0  0
  -21.6961    1.7735  -14.3002 N   0  0  0  0  0  0  0  0  0  0  0  0
  -21.2097    3.0800  -14.6804 C   0  0  0  0  0  0  0  0  0  0  0  0
  -22.8809    1.4921  -13.6719 C   0  0  0  0  0  0  0  0  0  0  0  0
  -29.0430    0.1807   -5.7784 C   0  0  0  0  0  0  0  0  0  0  0  0
  -28.7278   -0.5266   -4.6200 C   0  0  0  0  0  0  0  0  0  0  0  0
  -28.1237   -1.7739   -4.7137 C   0  0  0  0  0  0  0  0  0  0  0  0
  -27.7703   -2.2791   -5.9721 C   0  0  0  0  0  0  0  0  0  0  0  0
  -28.0897   -1.6065   -7.1604 C   0  0  0  0  0  0  0  0  0  0  0  0
  -28.7148   -0.3472   -7.0385 C   0  0  0  0  0  0  0  0  0  0  0  0
  -30.7360    1.6975   -6.4200 C   0  0  0  0  0  0  0  0  0  0  0  0
  -29.6553    1.3846   -5.5509 O   0  0  0  0  0  0  0  0  0  0  0  0
  -27.8320   -2.5793   -3.6441 O   0  0  0  0  0  0  0  0  0  0  0  0
  -28.9320   -2.8622   -2.7804 C   0  0  0  0  0  0  0  0  0  0  0  0
  -27.7559   -3.6888   -8.5674 C   0  0  0  0  0  0  0  0  0  0  0  0
  -28.8105   -4.7427   -8.1951 C   0  0  0  0  0  0  0  0  0  0  0  0
  -28.4836   -5.8473   -7.1699 C   0  0  0  0  0  0  0  0  0  0  0  0
  -28.6865   -5.3419   -5.7905 N   0  0  0  0  0  0  0  0  0  0  0  0
  -28.0662   -6.1493   -4.7168 C   0  0  0  0  0  0  0  0  0  0  0  0
  -28.8495   -7.4106   -4.2854 C   0  0  0  0  0  0  0  0  0  0  0  0
  -30.2530   -7.1455   -3.9349 N   0  0  0  0  0  0  0  0  0  0  0  0
  -30.8965   -6.3544   -4.9976 C   0  0  0  0  0  0  0  0  0  0  0  0
  -30.1022   -5.1044   -5.4446 C   0  0  0  0  0  0  0  0  0  0  0  0
  -30.2698   -6.6016   -3.0720 H   0  0  0  0  0  0  0  0  0  0  0  0
 24 25  1  0  0  0
 25 18  1  0  0  0
 18 19  1  0  0  0
 18 23  2  0  0  0
 19 20  2  0  0  0
 20 26  1  0  0  0
 20 21  1  0  0  0
 26 27  1  0  0  0
 21 22  2  0  0  0
 22  1  1  0  0  0
 22 23  1  0  0  0
  1 28  1  0  0  0
  1  2  1  0  0  0
 28 29  1  0  0  0
 29 30  1  0  0  0
 30 31  1  0  0  0
 31 32  1  0  0  0
 31 36  1  0  0  0
 32 33  1  0  0  0
 33 34  1  0  0  0
 34 35  1  0  0  0
 34 37  1  0  0  0
 35 36  1  0  0  0
  2  3  1  0  0  0
  2 11  2  0  0  0
  3  4  2  0  0  0
  4  5  1  0  0  0
  5  6  1  0  0  0
  5 10  2  0  0  0
  6  7  2  0  0  0
  7  8  1  0  0  0
  8 12  1  0  0  0
  8  9  2  0  0  0
 12 13  1  0  0  0
 12 17  2  0  0  0
 13 14  2  0  0  0
 14 15  1  0  0  0
 15 16  1  0  0  0
 15 17  1  0  0  0
  9 10  1  0  0  0
 10 11  1  0  0  0
M  END
> <minimizedAffinity>
-8.67226

$$$$
