CHEMBL3952249


 28 31  0  0  0  0  0  0  0  0999 V2000
  -15.4265   -0.5178  -14.3386 C   0  0  0  0  0  0  0  0  0  0  0  0
  -15.9492   -0.3113  -13.1230 N   0  0  0  0  0  0  0  0  0  0  0  0
  -15.6046   -1.1881  -12.1544 C   0  0  0  0  0  0  0  0  0  0  0  0
  -14.7633   -2.2607  -12.3526 C   0  0  0  0  0  0  0  0  0  0  0  0
  -14.2544   -2.3706  -13.6338 C   0  0  0  0  0  0  0  0  0  0  0  0
  -14.5885   -1.5262  -14.6240 N   0  0  0  0  0  0  0  0  0  0  0  0
  -13.3339   -3.4960  -14.0162 C   0  0  0  0  0  0  0  0  0  0  0  0
  -12.6686   -4.0860  -12.7768 C   0  0  0  0  0  0  0  0  0  0  0  0
  -13.7040   -4.3960  -11.7899 N   0  0  0  0  0  0  0  0  0  0  0  0
  -14.1321   -5.6531  -11.3688 C   0  0  0  0  0  0  0  0  0  0  0  0
  -14.9273   -5.7847  -10.4368 O   0  0  0  0  0  0  0  0  0  0  0  0
  -14.3717   -3.2058  -11.2525 C   0  0  0  0  0  0  0  0  0  0  0  0
  -13.6477   -6.9010  -12.0154 C   0  0  0  0  0  0  0  0  0  0  0  0
  -14.2865   -7.5513  -13.0717 C   0  0  0  0  0  0  0  0  0  0  0  0
  -13.7354   -8.7081  -13.6197 C   0  0  0  0  0  0  0  0  0  0  0  0
  -12.5887   -9.2197  -13.0450 C   0  0  0  0  0  0  0  0  0  0  0  0
  -11.9745   -8.6632  -11.9810 N   0  0  0  0  0  0  0  0  0  0  0  0
  -12.5226   -7.5209  -11.4849 C   0  0  0  0  0  0  0  0  0  0  0  0
  -15.7750    0.3774  -15.3590 N   0  0  0  0  0  0  0  0  0  0  0  0
  -14.9227    0.8240  -15.6666 H   0  0  0  0  0  0  0  0  0  0  0  0
  -19.1422    2.9352  -15.2856 C   0  0  0  0  0  0  0  0  0  0  0  0
  -17.8745    3.4626  -15.5229 C   0  0  0  0  0  0  0  0  0  0  0  0
  -16.7582    2.6215  -15.5464 C   0  0  0  0  0  0  0  0  0  0  0  0
  -16.8824    1.2451  -15.3165 C   0  0  0  0  0  0  0  0  0  0  0  0
  -18.1613    0.7166  -15.1324 C   0  0  0  0  0  0  0  0  0  0  0  0
  -19.2799    1.5584  -15.0968 C   0  0  0  0  0  0  0  0  0  0  0  0
  -21.3248    3.1274  -14.3724 C   0  0  0  0  0  0  0  0  0  0  0  0
  -20.3048    3.6517  -15.2152 O   0  0  0  0  0  0  0  0  0  0  0  0
 27 28  1  0  0  0
 28 21  1  0  0  0
 21 22  1  0  0  0
 21 26  2  0  0  0
 22 23  2  0  0  0
 23 24  1  0  0  0
 24 19  1  0  0  0
 24 25  2  0  0  0
 19  1  1  0  0  0
 19 20  1  0  0  0
  1  2  1  0  0  0
  1  6  2  0  0  0
  2  3  2  0  0  0
  3  4  1  0  0  0
  4  5  2  0  0  0
  4 12  1  0  0  0
  5  6  1  0  0  0
  5  7  1  0  0  0
  7  8  1  0  0  0
  8  9  1  0  0  0
  9 10  1  0  0  0
  9 12  1  0  0  0
 10 11  2  0  0  0
 10 13  1  0  0  0
 13 14  1  0  0  0
 13 18  2  0  0  0
 14 15  2  0  0  0
 15 16  1  0  0  0
 16 17  2  0  0  0
 17 18  1  0  0  0
 25 26  1  0  0  0
M  END
> <minimizedAffinity>
-7.91675

$$$$
