CHEMBL1956898


 34 37  0  0  0  0  0  0  0  0999 V2000
  -15.1061    3.4528  -15.6829 N   0  0  0  0  0  0  0  0  0  0  0  0
  -16.1025    4.1618  -16.3124 C   0  0  0  0  0  0  0  0  0  0  0  0
  -17.2593    3.4157  -16.2390 C   0  0  0  0  0  0  0  0  0  0  0  0
  -16.9604    2.2246  -15.5180 C   0  0  0  0  0  0  0  0  0  0  0  0
  -17.6636    1.0743  -15.1234 C   0  0  0  0  0  0  0  0  0  0  0  0
  -16.9936    0.1546  -14.3863 N   0  0  0  0  0  0  0  0  0  0  0  0
  -15.7148    0.3612  -14.0520 C   0  0  0  0  0  0  0  0  0  0  0  0
  -15.1103   -0.6486  -13.3243 N   0  0  0  0  0  0  0  0  0  0  0  0
  -14.9563    1.4022  -14.4064 N   0  0  0  0  0  0  0  0  0  0  0  0
  -15.6295    2.3050  -15.1376 C   0  0  0  0  0  0  0  0  0  0  0  0
  -15.6210   -1.5072  -13.4867 H   0  0  0  0  0  0  0  0  0  0  0  0
  -14.1193   -0.6585  -13.5102 H   0  0  0  0  0  0  0  0  0  0  0  0
  -18.9927    0.8640  -15.5195 N   0  0  0  0  0  0  0  0  0  0  0  0
  -19.0791    0.5326  -16.4698 H   0  0  0  0  0  0  0  0  0  0  0  0
  -20.1912    1.3365  -14.9642 C   0  0  0  0  0  0  0  0  0  0  0  0
  -20.4725    2.7002  -14.7905 C   0  0  0  0  0  0  0  0  0  0  0  0
  -21.6826    3.1281  -14.2462 C   0  0  0  0  0  0  0  0  0  0  0  0
  -22.6333    2.1954  -13.8392 C   0  0  0  0  0  0  0  0  0  0  0  0
  -22.3520    0.8402  -13.9644 C   0  0  0  0  0  0  0  0  0  0  0  0
  -23.6347   -0.4362  -13.4057 Br  0  0  0  0  0  0  0  0  0  0  0  0
  -21.1421    0.4086  -14.5108 C   0  0  0  0  0  0  0  0  0  0  0  0
  -13.6991    3.8296  -15.6557 C   0  0  0  0  0  0  0  0  0  0  0  0
  -12.6731    5.7663  -18.7973 C   0  0  0  0  0  0  0  0  0  0  0  0
  -13.0151    5.4614  -17.4702 C   0  0  0  0  0  0  0  0  0  0  0  0
  -13.2111    4.1368  -17.0530 C   0  0  0  0  0  0  0  0  0  0  0  0
  -13.0469    3.1047  -17.9836 C   0  0  0  0  0  0  0  0  0  0  0  0
  -12.7215    3.3863  -19.3136 C   0  0  0  0  0  0  0  0  0  0  0  0
  -12.5072    4.7187  -19.7259 C   0  0  0  0  0  0  0  0  0  0  0  0
  -13.4449    8.0232  -18.6444 C   0  0  0  0  0  0  0  0  0  0  0  0
  -12.6022    7.0562  -19.2571 O   0  0  0  0  0  0  0  0  0  0  0  0
  -12.5583    2.4006  -20.2606 O   0  0  0  0  0  0  0  0  0  0  0  0
  -12.0131    1.1753  -19.7835 C   0  0  0  0  0  0  0  0  0  0  0  0
  -12.2273    4.8734  -21.0650 O   0  0  0  0  0  0  0  0  0  0  0  0
  -10.8701    5.0908  -21.4251 C   0  0  0  0  0  0  0  0  0  0  0  0
 29 30  1  0  0  0
 30 23  1  0  0  0
 23 24  1  0  0  0
 23 28  2  0  0  0
 24 25  2  0  0  0
 25 22  1  0  0  0
 25 26  1  0  0  0
 22  1  1  0  0  0
  1  2  1  0  0  0
  1 10  1  0  0  0
  2  3  2  0  0  0
  3  4  1  0  0  0
  4  5  1  0  0  0
  4 10  2  0  0  0
  5 13  1  0  0  0
  5  6  2  0  0  0
 13 15  1  0  0  0
 13 14  1  0  0  0
 15 16  1  0  0  0
 15 21  2  0  0  0
 16 17  2  0  0  0
 17 18  1  0  0  0
 18 19  2  0  0  0
 19 20  1  0  0  0
 19 21  1  0  0  0
  6  7  1  0  0  0
  7  8  1  0  0  0
  7  9  2  0  0  0
  8 11  1  0  0  0
  8 12  1  0  0  0
  9 10  1  0  0  0
 26 27  2  0  0  0
 27 31  1  0  0  0
 27 28  1  0  0  0
 31 32  1  0  0  0
 28 33  1  0  0  0
 33 34  1  0  0  0
M  END
> <minimizedAffinity>
-7.09801

$$$$
