CHEMBL3739732


 40 44  0  0  0  0  0  0  0  0999 V2000
  -29.8923  -10.5906   -8.3608 O   0  0  0  0  0  0  0  0  0  0  0  0
  -30.1750   -9.5199   -7.5513 C   0  0  0  0  0  0  0  0  0  0  0  0
  -31.5128   -9.1729   -7.3832 C   0  0  0  0  0  0  0  0  0  0  0  0
  -31.8294   -7.9772   -6.7343 C   0  0  0  0  0  0  0  0  0  0  0  0
  -30.8109   -7.1893   -6.1636 C   0  0  0  0  0  0  0  0  0  0  0  0
  -31.0378   -5.9898   -5.4708 C   0  0  0  0  0  0  0  0  0  0  0  0
  -30.8532   -6.2144   -4.1159 C   0  0  0  0  0  0  0  0  0  0  0  0
  -29.6897   -6.8898   -3.7451 C   0  0  0  0  0  0  0  0  0  0  0  0
  -28.9473   -7.5630   -4.7345 C   0  0  0  0  0  0  0  0  0  0  0  0
  -29.5819   -7.8269   -5.9552 C   0  0  0  0  0  0  0  0  0  0  0  0
  -29.1936   -8.8769   -6.7962 C   0  0  0  0  0  0  0  0  0  0  0  0
  -30.0925   -4.8199   -5.9491 C   0  0  0  0  0  0  0  0  0  0  0  0
  -29.3714   -4.9644   -6.9306 O   0  0  0  0  0  0  0  0  0  0  0  0
  -30.1173   -3.6759   -5.1447 N   0  0  0  0  0  0  0  0  0  0  0  0
  -30.7461   -3.6902   -4.3546 H   0  0  0  0  0  0  0  0  0  0  0  0
  -29.2468   -2.5491   -5.1726 C   0  0  0  0  0  0  0  0  0  0  0  0
  -29.6379   -1.2282   -5.3151 C   0  0  0  0  0  0  0  0  0  0  0  0
  -28.6782   -0.2047   -5.3346 C   0  0  0  0  0  0  0  0  0  0  0  0
  -27.3486   -0.5424   -5.1982 C   0  0  0  0  0  0  0  0  0  0  0  0
  -26.9169   -1.8126   -5.0414 N   0  0  0  0  0  0  0  0  0  0  0  0
  -27.8757   -2.7752   -5.0348 C   0  0  0  0  0  0  0  0  0  0  0  0
  -26.6207  -11.2561   -9.4572 C   0  0  0  0  0  0  0  0  0  0  0  0
  -26.4542  -10.5106  -10.5611 N   0  0  0  0  0  0  0  0  0  0  0  0
  -27.5135   -9.7958  -10.9823 C   0  0  0  0  0  0  0  0  0  0  0  0
  -28.7221   -9.7785  -10.3355 C   0  0  0  0  0  0  0  0  0  0  0  0
  -28.7758  -10.5079   -9.1700 C   0  0  0  0  0  0  0  0  0  0  0  0
  -27.7494  -11.2595   -8.7399 N   0  0  0  0  0  0  0  0  0  0  0  0
  -25.5355  -12.0682   -9.1234 N   0  0  0  0  0  0  0  0  0  0  0  0
  -25.8250  -13.0293   -9.2308 H   0  0  0  0  0  0  0  0  0  0  0  0
  -23.4628  -10.6896   -6.3549 C   0  0  0  0  0  0  0  0  0  0  0  0
  -22.2269  -11.2921   -6.6127 C   0  0  0  0  0  0  0  0  0  0  0  0
  -22.0884  -12.1741   -7.6778 C   0  0  0  0  0  0  0  0  0  0  0  0
  -23.1764  -12.4469   -8.5082 C   0  0  0  0  0  0  0  0  0  0  0  0
  -24.4165  -11.8318   -8.3118 C   0  0  0  0  0  0  0  0  0  0  0  0
  -24.5469  -10.9705   -7.2079 C   0  0  0  0  0  0  0  0  0  0  0  0
  -23.6324   -9.8050   -5.1506 C   0  0  0  0  0  0  0  0  0  0  0  0
  -25.6555   -9.6653   -3.1787 C   0  0  0  0  0  0  0  0  0  0  0  0
  -24.3176  -10.6859   -3.7546 S   0  0  0  0  0  0  0  0  0  0  0  0
  -23.3268  -10.7749   -2.6986 O   0  0  0  0  0  0  0  0  0  0  0  0
  -24.9172  -11.8993   -4.2843 O   0  0  0  0  0  0  0  0  0  0  0  0
 37 38  1  0  0  0
 38 39  2  0  0  0
 38 40  2  0  0  0
 38 36  1  0  0  0
 36 30  1  0  0  0
 30 31  1  0  0  0
 30 35  2  0  0  0
 31 32  2  0  0  0
 32 33  1  0  0  0
 33 34  2  0  0  0
 34 28  1  0  0  0
 34 35  1  0  0  0
 28 22  1  0  0  0
 28 29  1  0  0  0
 22 23  1  0  0  0
 22 27  2  0  0  0
 23 24  2  0  0  0
 24 25  1  0  0  0
 25 26  2  0  0  0
 26  1  1  0  0  0
 26 27  1  0  0  0
  1  2  1  0  0  0
  2  3  1  0  0  0
  2 11  2  0  0  0
  3  4  2  0  0  0
  4  5  1  0  0  0
  5  6  1  0  0  0
  5 10  2  0  0  0
  6 12  1  0  0  0
  6  7  2  0  0  0
 12 13  2  0  0  0
 12 14  1  0  0  0
 14 16  1  0  0  0
 14 15  1  0  0  0
 16 17  1  0  0  0
 16 21  2  0  0  0
 17 18  2  0  0  0
 18 19  1  0  0  0
 19 20  2  0  0  0
 20 21  1  0  0  0
  7  8  1  0  0  0
  8  9  2  0  0  0
  9 10  1  0  0  0
 10 11  1  0  0  0
M  END
> <minimizedAffinity>
-9.13093

$$$$
