CHEMBL3775169


 26 28  0  0  0  0  0  0  0  0999 V2000
  -28.8013   -1.6921   -5.0902 C   0  0  0  0  0  0  0  0  0  0  0  0
  -29.7908   -2.2557   -4.2602 C   0  0  0  0  0  0  0  0  0  0  0  0
  -30.2789   -3.5383   -4.4458 C   0  0  0  0  0  0  0  0  0  0  0  0
  -31.1346   -4.0332   -3.5449 N   0  0  0  0  0  0  0  0  0  0  0  0
  -31.4876   -5.3119   -3.6985 C   0  0  0  0  0  0  0  0  0  0  0  0
  -31.0635   -6.1310   -4.6613 N   0  0  0  0  0  0  0  0  0  0  0  0
  -30.2306   -5.6141   -5.5844 C   0  0  0  0  0  0  0  0  0  0  0  0
  -29.8052   -4.2787   -5.5317 C   0  0  0  0  0  0  0  0  0  0  0  0
  -28.9051   -3.6787   -6.4360 C   0  0  0  0  0  0  0  0  0  0  0  0
  -28.3857   -2.3979   -6.2209 C   0  0  0  0  0  0  0  0  0  0  0  0
  -28.8572    0.6638   -5.3893 C   0  0  0  0  0  0  0  0  0  0  0  0
  -28.2371   -0.4793   -4.7910 O   0  0  0  0  0  0  0  0  0  0  0  0
  -29.6914   -6.4802   -6.5691 N   0  0  0  0  0  0  0  0  0  0  0  0
  -29.5594   -5.9894   -7.4484 H   0  0  0  0  0  0  0  0  0  0  0  0
  -30.0931   -7.8228   -6.7422 C   0  0  0  0  0  0  0  0  0  0  0  0
  -31.1552   -8.1469   -7.6009 C   0  0  0  0  0  0  0  0  0  0  0  0
  -31.4800   -9.4776   -7.8410 C   0  0  0  0  0  0  0  0  0  0  0  0
  -32.4799   -9.7972   -8.7144 O   0  0  0  0  0  0  0  0  0  0  0  0
  -30.7722  -10.4930   -7.2024 C   0  0  0  0  0  0  0  0  0  0  0  0
  -31.0541  -11.7782   -7.4605 F   0  0  0  0  0  0  0  0  0  0  0  0
  -29.7584  -10.1934   -6.2992 C   0  0  0  0  0  0  0  0  0  0  0  0
  -29.4358   -8.8605   -6.0691 C   0  0  0  0  0  0  0  0  0  0  0  0
  -28.4494   -8.5662   -5.2076 F   0  0  0  0  0  0  0  0  0  0  0  0
  -32.8111   -8.9818   -9.1266 H   0  0  0  0  0  0  0  0  0  0  0  0
  -27.4897   -2.0595   -7.1928 O   0  0  0  0  0  0  0  0  0  0  0  0
  -27.7306   -2.4137   -8.5408 C   0  0  0  0  0  0  0  0  0  0  0  0
 11 12  1  0  0  0
 12  1  1  0  0  0
  1  2  1  0  0  0
  1 10  2  0  0  0
  2  3  2  0  0  0
  3  4  1  0  0  0
  3  8  1  0  0  0
  4  5  2  0  0  0
  5  6  1  0  0  0
  6  7  2  0  0  0
  7 13  1  0  0  0
  7  8  1  0  0  0
 13 15  1  0  0  0
 13 14  1  0  0  0
 15 16  1  0  0  0
 15 22  2  0  0  0
 16 17  2  0  0  0
 17 18  1  0  0  0
 17 19  1  0  0  0
 18 24  1  0  0  0
 19 20  1  0  0  0
 19 21  2  0  0  0
 21 22  1  0  0  0
 22 23  1  0  0  0
  8  9  2  0  0  0
  9 10  1  0  0  0
 10 25  1  0  0  0
 25 26  1  0  0  0
M  END
> <minimizedAffinity>
-7.95550

$$$$
