CHEMBL3781028


 30 34  0  0  0  0  0  0  0  0999 V2000
  -29.8418  -10.7356   -8.5282 C   0  0  0  0  0  0  0  0  0  0  0  0
  -30.4161  -11.9981   -8.6877 C   0  0  0  0  0  0  0  0  0  0  0  0
  -31.6858  -12.3033   -8.3753 N   0  0  0  0  0  0  0  0  0  0  0  0
  -32.4033  -11.2982   -7.8257 C   0  0  0  0  0  0  0  0  0  0  0  0
  -31.9356  -10.0287   -7.5504 C   0  0  0  0  0  0  0  0  0  0  0  0
  -32.7577   -9.1055   -6.9925 N   0  0  0  0  0  0  0  0  0  0  0  0
  -32.2175   -7.8967   -6.7620 C   0  0  0  0  0  0  0  0  0  0  0  0
  -30.9030   -7.5670   -7.0646 C   0  0  0  0  0  0  0  0  0  0  0  0
  -30.0835   -8.4937   -7.6484 N   0  0  0  0  0  0  0  0  0  0  0  0
  -30.6002   -9.7309   -7.8927 C   0  0  0  0  0  0  0  0  0  0  0  0
  -30.3315   -6.2543   -6.7372 C   0  0  0  0  0  0  0  0  0  0  0  0
  -30.5323   -5.6671   -5.4800 C   0  0  0  0  0  0  0  0  0  0  0  0
  -30.0274   -4.4029   -5.1786 C   0  0  0  0  0  0  0  0  0  0  0  0
  -29.3094   -3.6485   -6.1175 C   0  0  0  0  0  0  0  0  0  0  0  0
  -29.1124   -4.2389   -7.3721 C   0  0  0  0  0  0  0  0  0  0  0  0
  -29.5985   -5.5091   -7.6768 C   0  0  0  0  0  0  0  0  0  0  0  0
  -28.8303   -2.3945   -5.8217 N   0  0  0  0  0  0  0  0  0  0  0  0
  -29.4492   -1.5641   -4.7915 C   0  0  0  0  0  0  0  0  0  0  0  0
  -29.8733   -0.2315   -5.3998 C   0  0  0  0  0  0  0  0  0  0  0  0
  -28.7093    0.4441   -6.1273 C   0  0  0  0  0  0  0  0  0  0  0  0
  -28.0435   -0.5002   -7.1288 C   0  0  0  0  0  0  0  0  0  0  0  0
  -27.6558   -1.8327   -6.4833 C   0  0  0  0  0  0  0  0  0  0  0  0
  -28.5127  -10.4857   -8.9727 N   0  0  0  0  0  0  0  0  0  0  0  0
  -28.0254   -9.9217   -8.2676 H   0  0  0  0  0  0  0  0  0  0  0  0
  -27.5244   -9.3740  -12.9370 C   0  0  0  0  0  0  0  0  0  0  0  0
  -26.6487   -9.0654  -11.9027 C   0  0  0  0  0  0  0  0  0  0  0  0
  -26.9630   -9.4289  -10.5906 C   0  0  0  0  0  0  0  0  0  0  0  0
  -28.1707  -10.0793  -10.2897 C   0  0  0  0  0  0  0  0  0  0  0  0
  -29.0389  -10.3847  -11.3421 C   0  0  0  0  0  0  0  0  0  0  0  0
  -28.7229  -10.0283  -12.6563 C   0  0  0  0  0  0  0  0  0  0  0  0
 25 26  1  0  0  0
 25 30  2  0  0  0
 26 27  2  0  0  0
 27 28  1  0  0  0
 28 23  1  0  0  0
 28 29  2  0  0  0
 23  1  1  0  0  0
 23 24  1  0  0  0
  1  2  1  0  0  0
  1 10  2  0  0  0
  2  3  2  0  0  0
  3  4  1  0  0  0
  4  5  2  0  0  0
  5  6  1  0  0  0
  5 10  1  0  0  0
  6  7  2  0  0  0
  7  8  1  0  0  0
  8 11  1  0  0  0
  8  9  2  0  0  0
 11 12  1  0  0  0
 11 16  2  0  0  0
 12 13  2  0  0  0
 13 14  1  0  0  0
 14 17  1  0  0  0
 14 15  2  0  0  0
 17 18  1  0  0  0
 17 22  1  0  0  0
 18 19  1  0  0  0
 19 20  1  0  0  0
 20 21  1  0  0  0
 21 22  1  0  0  0
 15 16  1  0  0  0
  9 10  1  0  0  0
 29 30  1  0  0  0
M  END
> <minimizedAffinity>
-9.09802

$$$$
