CHEMBL191389


 40 43  0  0  0  0  0  0  0  0999 V2000
  -29.8629   -7.3173   -4.6092 C   0  0  0  0  0  0  0  0  0  0  0  0
  -29.3355   -8.1507   -5.6005 C   0  0  0  0  0  0  0  0  0  0  0  0
  -28.2389   -8.9494   -5.3169 C   0  0  0  0  0  0  0  0  0  0  0  0
  -27.6429   -9.7035   -6.2648 N   0  0  0  0  0  0  0  0  0  0  0  0
  -26.4469  -10.3050   -5.9860 C   0  0  0  0  0  0  0  0  0  0  0  0
  -25.8081  -10.2443   -4.7263 C   0  0  0  0  0  0  0  0  0  0  0  0
  -26.5041   -9.5036   -3.7578 C   0  0  0  0  0  0  0  0  0  0  0  0
  -27.7229   -8.8834   -4.0277 C   0  0  0  0  0  0  0  0  0  0  0  0
  -28.4073   -8.1688   -3.0565 C   0  0  0  0  0  0  0  0  0  0  0  0
  -29.4549   -7.3835   -3.3361 N   0  0  0  0  0  0  0  0  0  0  0  0
  -24.5459  -10.9533   -4.3019 C   0  0  0  0  0  0  0  0  0  0  0  0
  -23.2719  -10.7139   -4.8749 C   0  0  0  0  0  0  0  0  0  0  0  0
  -22.9601   -9.4850   -6.0600 Cl  0  0  0  0  0  0  0  0  0  0  0  0
  -22.1167  -11.3917   -4.4437 C   0  0  0  0  0  0  0  0  0  0  0  0
  -22.1559  -12.2407   -3.3481 C   0  0  0  0  0  0  0  0  0  0  0  0
  -23.3647  -12.4607   -2.7152 C   0  0  0  0  0  0  0  0  0  0  0  0
  -24.5436  -11.8800   -3.2114 C   0  0  0  0  0  0  0  0  0  0  0  0
  -25.9787  -12.4211   -2.3805 Cl  0  0  0  0  0  0  0  0  0  0  0  0
  -25.8112  -10.9255   -7.0672 N   0  0  0  0  0  0  0  0  0  0  0  0
  -26.1452  -10.9412   -8.3869 C   0  0  0  0  0  0  0  0  0  0  0  0
  -25.3766  -11.4754   -9.1878 O   0  0  0  0  0  0  0  0  0  0  0  0
  -27.3896  -10.4901   -8.6856 N   0  0  0  0  0  0  0  0  0  0  0  0
  -24.9265  -11.3742   -6.8826 H   0  0  0  0  0  0  0  0  0  0  0  0
  -27.7515   -9.8223   -8.0171 H   0  0  0  0  0  0  0  0  0  0  0  0
  -28.0126  -10.5710  -10.0076 C   0  0  0  0  0  0  0  0  0  0  0  0
  -28.2056  -12.0405  -10.4282 C   0  0  0  0  0  0  0  0  0  0  0  0
  -29.3935   -9.8996   -9.9257 C   0  0  0  0  0  0  0  0  0  0  0  0
  -27.1678   -9.8319  -11.0644 C   0  0  0  0  0  0  0  0  0  0  0  0
  -30.7760   -6.3420   -4.9772 N   0  0  0  0  0  0  0  0  0  0  0  0
  -31.3439   -6.6321   -5.7683 H   0  0  0  0  0  0  0  0  0  0  0  0
  -31.5216   -5.7324   -3.8770 C   0  0  0  0  0  0  0  0  0  0  0  0
  -31.3532   -4.2166   -3.9628 C   0  0  0  0  0  0  0  0  0  0  0  0
  -29.8802   -3.8093   -3.7618 C   0  0  0  0  0  0  0  0  0  0  0  0
  -28.3224    0.6473   -4.9245 C   0  0  0  0  0  0  0  0  0  0  0  0
  -28.3815   -0.7493   -5.3387 N   0  0  0  0  0  0  0  0  0  0  0  0
  -27.7115   -1.6273   -4.3656 C   0  0  0  0  0  0  0  0  0  0  0  0
  -27.7687   -3.1006   -4.8261 C   0  0  0  0  0  0  0  0  0  0  0  0
  -29.1348   -3.6347   -5.0224 N   0  0  0  0  0  0  0  0  0  0  0  0
  -29.8582   -2.7020   -5.9242 C   0  0  0  0  0  0  0  0  0  0  0  0
  -29.7716   -1.1983   -5.5422 C   0  0  0  0  0  0  0  0  0  0  0  0
 34 35  1  0  0  0
 35 36  1  0  0  0
 35 40  1  0  0  0
 36 37  1  0  0  0
 37 38  1  0  0  0
 38 33  1  0  0  0
 38 39  1  0  0  0
 33 32  1  0  0  0
 32 31  1  0  0  0
 31 29  1  0  0  0
 29  1  1  0  0  0
 29 30  1  0  0  0
  1  2  1  0  0  0
  1 10  2  0  0  0
  2  3  2  0  0  0
  3  4  1  0  0  0
  3  8  1  0  0  0
  4  5  2  0  0  0
  5 19  1  0  0  0
  5  6  1  0  0  0
 19 20  1  0  0  0
 19 23  1  0  0  0
 20 21  2  0  0  0
 20 22  1  0  0  0
 22 25  1  0  0  0
 22 24  1  0  0  0
 25 26  1  0  0  0
 25 27  1  0  0  0
 25 28  1  0  0  0
  6 11  1  0  0  0
  6  7  2  0  0  0
 11 12  1  0  0  0
 11 17  2  0  0  0
 12 13  1  0  0  0
 12 14  2  0  0  0
 14 15  1  0  0  0
 15 16  2  0  0  0
 16 17  1  0  0  0
 17 18  1  0  0  0
  7  8  1  0  0  0
  8  9  2  0  0  0
  9 10  1  0  0  0
 39 40  1  0  0  0
M  END
> <minimizedAffinity>
-8.56486

$$$$
