CHEMBL4584918


 28 31  0  0  0  0  0  0  0  0999 V2000
  -15.7419   -1.7454  -11.7446 N   0  0  0  0  0  0  0  0  0  0  0  0
  -16.0440   -1.3038  -10.8876 H   0  0  0  0  0  0  0  0  0  0  0  0
  -15.4520   -0.7966  -12.7242 C   0  0  0  0  0  0  0  0  0  0  0  0
  -14.1641   -0.5625  -12.9786 N   0  0  0  0  0  0  0  0  0  0  0  0
  -13.9007    0.4135  -13.8661 C   0  0  0  0  0  0  0  0  0  0  0  0
  -14.8577    1.2078  -14.4728 C   0  0  0  0  0  0  0  0  0  0  0  0
  -16.1619    0.9056  -14.1523 C   0  0  0  0  0  0  0  0  0  0  0  0
  -16.4519   -0.1137  -13.3055 N   0  0  0  0  0  0  0  0  0  0  0  0
  -17.3119    1.6755  -14.6539 C   0  0  0  0  0  0  0  0  0  0  0  0
  -18.6356    1.3557  -14.2812 C   0  0  0  0  0  0  0  0  0  0  0  0
  -19.7198    2.0969  -14.7455 C   0  0  0  0  0  0  0  0  0  0  0  0
  -19.4644    3.1554  -15.5888 C   0  0  0  0  0  0  0  0  0  0  0  0
  -18.2224    3.5066  -15.9679 N   0  0  0  0  0  0  0  0  0  0  0  0
  -17.1717    2.7788  -15.4976 C   0  0  0  0  0  0  0  0  0  0  0  0
  -15.6221    3.4322  -16.0570 S   0  0  0  0  0  0  0  0  0  0  0  0
  -14.4139    2.2832  -15.3973 C   0  0  0  0  0  0  0  0  0  0  0  0
  -14.5776   -5.1769  -12.6522 C   0  0  0  0  0  0  0  0  0  0  0  0
  -15.0721   -3.8686  -12.7466 C   0  0  0  0  0  0  0  0  0  0  0  0
  -15.2198   -3.0440  -11.6273 C   0  0  0  0  0  0  0  0  0  0  0  0
  -14.8759   -3.5527  -10.3754 C   0  0  0  0  0  0  0  0  0  0  0  0
  -14.4332   -4.8824  -10.2465 C   0  0  0  0  0  0  0  0  0  0  0  0
  -14.2360   -5.6854  -11.3882 C   0  0  0  0  0  0  0  0  0  0  0  0
  -15.7017   -6.6863  -14.0979 C   0  0  0  0  0  0  0  0  0  0  0  0
  -14.5046   -5.9961  -13.7510 O   0  0  0  0  0  0  0  0  0  0  0  0
  -14.1234   -5.4410   -9.0253 O   0  0  0  0  0  0  0  0  0  0  0  0
  -12.9089   -4.9993   -8.4265 C   0  0  0  0  0  0  0  0  0  0  0  0
  -13.7767   -6.9600  -11.1372 O   0  0  0  0  0  0  0  0  0  0  0  0
  -12.4136   -7.2233  -11.4427 C   0  0  0  0  0  0  0  0  0  0  0  0
 23 24  1  0  0  0
 24 17  1  0  0  0
 17 18  1  0  0  0
 17 22  2  0  0  0
 18 19  2  0  0  0
 19  1  1  0  0  0
 19 20  1  0  0  0
  1  3  1  0  0  0
  1  2  1  0  0  0
  3  4  1  0  0  0
  3  8  2  0  0  0
  4  5  2  0  0  0
  5  6  1  0  0  0
  6  7  2  0  0  0
  6 16  1  0  0  0
  7  8  1  0  0  0
  7  9  1  0  0  0
  9 10  1  0  0  0
  9 14  2  0  0  0
 10 11  2  0  0  0
 11 12  1  0  0  0
 12 13  2  0  0  0
 13 14  1  0  0  0
 14 15  1  0  0  0
 15 16  1  0  0  0
 20 21  2  0  0  0
 21 25  1  0  0  0
 21 22  1  0  0  0
 25 26  1  0  0  0
 22 27  1  0  0  0
 27 28  1  0  0  0
M  END
> <minimizedAffinity>
-7.40256

$$$$
