CHEMBL3892583


 36 40  0  0  0  0  0  0  0  0999 V2000
  -23.0522   -0.6613  -12.6080 C   0  0  0  0  0  0  0  0  0  0  0  0
  -22.6252   -1.0548  -13.8875 C   0  0  0  0  0  0  0  0  0  0  0  0
  -21.8612   -0.1971  -14.7148 C   0  0  0  0  0  0  0  0  0  0  0  0
  -21.7428    1.1466  -14.3225 C   0  0  0  0  0  0  0  0  0  0  0  0
  -21.1882    2.3891  -14.7931 C   0  0  0  0  0  0  0  0  0  0  0  0
  -22.1668    3.3021  -14.6039 N   0  0  0  0  0  0  0  0  0  0  0  0
  -22.6728    2.8844  -13.4235 N   0  0  0  0  0  0  0  0  0  0  0  0
  -22.4704    1.5519  -13.2038 C   0  0  0  0  0  0  0  0  0  0  0  0
  -22.9546    0.6787  -12.2302 C   0  0  0  0  0  0  0  0  0  0  0  0
  -23.2636    3.5216  -12.9112 H   0  0  0  0  0  0  0  0  0  0  0  0
  -19.8724    2.9535  -14.4867 C   0  0  0  0  0  0  0  0  0  0  0  0
  -19.0666    3.5010  -15.4226 C   0  0  0  0  0  0  0  0  0  0  0  0
  -17.6400    3.1270  -15.5606 C   0  0  0  0  0  0  0  0  0  0  0  0
  -17.2527    1.7704  -15.6173 C   0  0  0  0  0  0  0  0  0  0  0  0
  -15.9625    1.4035  -16.0192 C   0  0  0  0  0  0  0  0  0  0  0  0
  -15.0447    2.3881  -16.3656 C   0  0  0  0  0  0  0  0  0  0  0  0
  -13.4779    1.9425  -16.9198 Cl  0  0  0  0  0  0  0  0  0  0  0  0
  -15.4040    3.7349  -16.2993 C   0  0  0  0  0  0  0  0  0  0  0  0
  -16.6978    4.0990  -15.9029 C   0  0  0  0  0  0  0  0  0  0  0  0
  -23.7129   -1.4583  -11.6878 O   0  0  0  0  0  0  0  0  0  0  0  0
  -27.1403   -1.4923  -10.4030 C   0  0  0  0  0  0  0  0  0  0  0  0
  -27.8520   -1.5767  -11.6037 C   0  0  0  0  0  0  0  0  0  0  0  0
  -27.2016   -1.7640  -12.8193 C   0  0  0  0  0  0  0  0  0  0  0  0
  -25.8176   -1.8195  -12.8556 C   0  0  0  0  0  0  0  0  0  0  0  0
  -25.0851   -1.5549  -11.7001 C   0  0  0  0  0  0  0  0  0  0  0  0
  -25.7411   -1.4392  -10.4608 C   0  0  0  0  0  0  0  0  0  0  0  0
  -27.6525   -3.7475   -8.6359 O   0  0  0  0  0  0  0  0  0  0  0  0
  -28.0191   -2.6061   -8.3749 C   0  0  0  0  0  0  0  0  0  0  0  0
  -27.7968   -1.4754   -9.1432 N   0  0  0  0  0  0  0  0  0  0  0  0
  -27.9434   -0.5704   -8.7179 H   0  0  0  0  0  0  0  0  0  0  0  0
  -28.6807   -2.4161   -7.0581 C   0  0  0  0  0  0  0  0  0  0  0  0
  -28.3112   -1.2901   -6.3105 C   0  0  0  0  0  0  0  0  0  0  0  0
  -28.7906   -1.1096   -5.0176 C   0  0  0  0  0  0  0  0  0  0  0  0
  -29.6342   -2.0656   -4.4574 C   0  0  0  0  0  0  0  0  0  0  0  0
  -30.0149   -3.1854   -5.1981 C   0  0  0  0  0  0  0  0  0  0  0  0
  -29.5357   -3.3730   -6.4991 C   0  0  0  0  0  0  0  0  0  0  0  0
 27 28  2  0  0  0
 28 29  1  0  0  0
 28 31  1  0  0  0
 29 21  1  0  0  0
 29 30  1  0  0  0
 21 22  1  0  0  0
 21 26  2  0  0  0
 22 23  2  0  0  0
 23 24  1  0  0  0
 24 25  2  0  0  0
 25 20  1  0  0  0
 25 26  1  0  0  0
 20  1  1  0  0  0
  1  2  1  0  0  0
  1  9  2  0  0  0
  2  3  2  0  0  0
  3  4  1  0  0  0
  4  5  1  0  0  0
  4  8  2  0  0  0
  5 11  1  0  0  0
  5  6  2  0  0  0
 11 12  2  0  0  0
 12 13  1  0  0  0
 13 14  1  0  0  0
 13 19  2  0  0  0
 14 15  2  0  0  0
 15 16  1  0  0  0
 16 17  1  0  0  0
 16 18  2  0  0  0
 18 19  1  0  0  0
  6  7  1  0  0  0
  7  8  1  0  0  0
  7 10  1  0  0  0
  8  9  1  0  0  0
 31 32  1  0  0  0
 31 36  2  0  0  0
 32 33  2  0  0  0
 33 34  1  0  0  0
 34 35  2  0  0  0
 35 36  1  0  0  0
M  END
> <minimizedAffinity>
-10.93483

$$$$
