CHEMBL383435


 26 29  0  0  0  0  0  0  0  0999 V2000
  -29.1796   -5.3049   -7.1141 C   0  0  0  0  0  0  0  0  0  0  0  0
  -28.9293   -6.0867   -6.0480 C   0  0  0  0  0  0  0  0  0  0  0  0
  -28.0140   -5.8852   -4.8957 C   0  0  0  0  0  0  0  0  0  0  0  0
  -27.4578   -4.8867   -4.4880 O   0  0  0  0  0  0  0  0  0  0  0  0
  -27.9337   -7.1559   -4.3356 N   0  0  0  0  0  0  0  0  0  0  0  0
  -28.7900   -8.0885   -4.8708 N   0  0  0  0  0  0  0  0  0  0  0  0
  -29.4247   -7.4760   -5.8426 C   0  0  0  0  0  0  0  0  0  0  0  0
  -27.4034   -7.3555   -3.4958 H   0  0  0  0  0  0  0  0  0  0  0  0
  -29.6574   -2.4400   -5.4332 C   0  0  0  0  0  0  0  0  0  0  0  0
  -29.6839   -1.0935   -5.0172 C   0  0  0  0  0  0  0  0  0  0  0  0
  -29.0083   -0.0992   -5.7185 C   0  0  0  0  0  0  0  0  0  0  0  0
  -28.2831   -0.4086   -6.8629 C   0  0  0  0  0  0  0  0  0  0  0  0
  -28.2701   -1.7426   -7.2982 C   0  0  0  0  0  0  0  0  0  0  0  0
  -28.9499   -2.7724   -6.6254 C   0  0  0  0  0  0  0  0  0  0  0  0
  -28.7233   -3.9760   -7.3924 C   0  0  0  0  0  0  0  0  0  0  0  0
  -27.8901   -3.6464   -8.4384 C   0  0  0  0  0  0  0  0  0  0  0  0
  -27.6405   -2.3066   -8.3856 N   0  0  0  0  0  0  0  0  0  0  0  0
  -26.8136   -1.5888   -9.3288 C   0  0  0  0  0  0  0  0  0  0  0  0
  -30.3992   -3.2746   -3.3380 C   0  0  0  0  0  0  0  0  0  0  0  0
  -30.3202   -3.4386   -4.7532 O   0  0  0  0  0  0  0  0  0  0  0  0
  -30.5549   -8.0711   -6.5597 C   0  0  0  0  0  0  0  0  0  0  0  0
  -30.3889   -9.2522   -7.2687 C   0  0  0  0  0  0  0  0  0  0  0  0
  -31.4305   -9.9015   -7.8505 N   0  0  0  0  0  0  0  0  0  0  0  0
  -32.6445   -9.3354   -7.6597 C   0  0  0  0  0  0  0  0  0  0  0  0
  -32.8121   -8.1665   -6.9357 C   0  0  0  0  0  0  0  0  0  0  0  0
  -31.7749   -7.5044   -6.3755 N   0  0  0  0  0  0  0  0  0  0  0  0
 19 20  1  0  0  0
 20  9  1  0  0  0
  9 10  1  0  0  0
  9 14  2  0  0  0
 10 11  2  0  0  0
 11 12  1  0  0  0
 12 13  2  0  0  0
 13 14  1  0  0  0
 13 17  1  0  0  0
 14 15  1  0  0  0
 15  1  1  0  0  0
 15 16  2  0  0  0
  1  2  2  0  0  0
  2  3  1  0  0  0
  2  7  1  0  0  0
  3  4  2  0  0  0
  3  5  1  0  0  0
  5  6  1  0  0  0
  5  8  1  0  0  0
  6  7  2  0  0  0
  7 21  1  0  0  0
 21 22  1  0  0  0
 21 26  2  0  0  0
 22 23  2  0  0  0
 23 24  1  0  0  0
 24 25  2  0  0  0
 25 26  1  0  0  0
 16 17  1  0  0  0
 17 18  1  0  0  0
M  END
> <minimizedAffinity>
-8.16327

$$$$
