CHEMBL4531086


 36 39  0  0  0  0  0  0  0  0999 V2000
  -25.2283   -1.5111  -12.3888 C   0  0  0  0  0  0  0  0  0  0  0  0
  -26.5699   -1.5510  -12.7769 C   0  0  0  0  0  0  0  0  0  0  0  0
  -27.5896   -1.5716  -11.8253 C   0  0  0  0  0  0  0  0  0  0  0  0
  -27.3020   -1.6129  -10.4565 C   0  0  0  0  0  0  0  0  0  0  0  0
  -25.9549   -1.5794  -10.0690 C   0  0  0  0  0  0  0  0  0  0  0  0
  -24.9204   -1.5635  -11.0282 C   0  0  0  0  0  0  0  0  0  0  0  0
  -22.5451   -0.0377  -14.3626 N   0  0  0  0  0  0  0  0  0  0  0  0
  -23.5303   -0.1058  -13.3915 C   0  0  0  0  0  0  0  0  0  0  0  0
  -23.7827    0.7957  -12.5951 O   0  0  0  0  0  0  0  0  0  0  0  0
  -24.2033   -1.3259  -13.3607 N   0  0  0  0  0  0  0  0  0  0  0  0
  -22.5825   -0.7189  -15.1072 H   0  0  0  0  0  0  0  0  0  0  0  0
  -23.6368   -2.1315  -13.5824 H   0  0  0  0  0  0  0  0  0  0  0  0
  -17.9301    1.4886  -15.4563 C   0  0  0  0  0  0  0  0  0  0  0  0
  -19.3397    1.7802  -15.0287 C   0  0  0  0  0  0  0  0  0  0  0  0
  -19.7072    3.1009  -14.7489 C   0  0  0  0  0  0  0  0  0  0  0  0
  -21.0026    3.3904  -14.3504 C   0  0  0  0  0  0  0  0  0  0  0  0
  -21.9372    2.3640  -14.2209 C   0  0  0  0  0  0  0  0  0  0  0  0
  -21.6105    1.0309  -14.4988 C   0  0  0  0  0  0  0  0  0  0  0  0
  -20.2964    0.7488  -14.9042 C   0  0  0  0  0  0  0  0  0  0  0  0
  -28.3381   -1.6409   -9.4811 N   0  0  0  0  0  0  0  0  0  0  0  0
  -29.2586   -1.5927   -9.9293 H   0  0  0  0  0  0  0  0  0  0  0  0
  -28.3603   -2.4984   -8.3376 C   0  0  0  0  0  0  0  0  0  0  0  0
  -28.4746   -3.8852   -8.5495 C   0  0  0  0  0  0  0  0  0  0  0  0
  -28.5994   -4.7575   -7.4836 C   0  0  0  0  0  0  0  0  0  0  0  0
  -28.5042   -4.2397   -6.1920 C   0  0  0  0  0  0  0  0  0  0  0  0
  -28.2124   -2.9095   -5.9072 C   0  0  0  0  0  0  0  0  0  0  0  0
  -27.9607   -2.5154   -4.6408 N   0  0  0  0  0  0  0  0  0  0  0  0
  -27.7113   -1.2228   -4.4160 C   0  0  0  0  0  0  0  0  0  0  0  0
  -27.7459   -0.2624   -5.3369 N   0  0  0  0  0  0  0  0  0  0  0  0
  -27.9869   -0.6928   -6.5837 C   0  0  0  0  0  0  0  0  0  0  0  0
  -28.0731    0.3423   -7.4651 O   0  0  0  0  0  0  0  0  0  0  0  0
  -28.1806   -2.0159   -6.9925 C   0  0  0  0  0  0  0  0  0  0  0  0
  -27.9943    1.0918   -6.8429 H   0  0  0  0  0  0  0  0  0  0  0  0
  -28.7666   -5.1425   -5.0939 N   0  0  0  0  0  0  0  0  0  0  0  0
  -27.8272   -5.8597   -4.7213 O   0  0  0  0  0  0  0  0  0  0  0  0
  -29.9308   -5.2023   -4.6743 O   0  0  0  0  0  0  0  0  0  0  0  0
 13 14  1  0  0  0
 14 15  1  0  0  0
 14 19  2  0  0  0
 15 16  2  0  0  0
 16 17  1  0  0  0
 17 18  2  0  0  0
 18  7  1  0  0  0
 18 19  1  0  0  0
  7  8  1  0  0  0
  7 11  1  0  0  0
  8  9  2  0  0  0
  8 10  1  0  0  0
 10  1  1  0  0  0
 10 12  1  0  0  0
  1  2  1  0  0  0
  1  6  2  0  0  0
  2  3  2  0  0  0
  3  4  1  0  0  0
  4 20  1  0  0  0
  4  5  2  0  0  0
 20 22  1  0  0  0
 20 21  1  0  0  0
 22 23  1  0  0  0
 22 32  2  0  0  0
 23 24  2  0  0  0
 24 25  1  0  0  0
 25 34  1  0  0  0
 25 26  2  0  0  0
 34 35  2  0  0  0
 34 36  1  0  0  0
 26 27  1  0  0  0
 26 32  1  0  0  0
 27 28  2  0  0  0
 28 29  1  0  0  0
 29 30  2  0  0  0
 30 31  1  0  0  0
 30 32  1  0  0  0
 31 33  1  0  0  0
  5  6  1  0  0  0
M  CHG 1  34   1
M  CHG 1  36  -1
M  END
> <minimizedAffinity>
-10.72115

$$$$
