CHEMBL598797


 35 37  0  0  0  0  0  0  0  0999 V2000
  -17.5695    1.6571  -15.3071 C   0  0  0  0  0  0  0  0  0  0  0  0
  -17.7913    2.7350  -16.0879 N   0  0  0  0  0  0  0  0  0  0  0  0
  -16.7398    3.4984  -16.3775 C   0  0  0  0  0  0  0  0  0  0  0  0
  -15.4958    3.3005  -15.9452 N   0  0  0  0  0  0  0  0  0  0  0  0
  -15.2930    2.2266  -15.1769 C   0  0  0  0  0  0  0  0  0  0  0  0
  -14.0251    2.0241  -14.6717 C   0  0  0  0  0  0  0  0  0  0  0  0
  -13.6449    0.9433  -13.8414 C   0  0  0  0  0  0  0  0  0  0  0  0
  -14.6245   -0.0058  -13.5197 C   0  0  0  0  0  0  0  0  0  0  0  0
  -15.9312    0.1959  -14.0261 C   0  0  0  0  0  0  0  0  0  0  0  0
  -16.2846    1.3166  -14.8357 C   0  0  0  0  0  0  0  0  0  0  0  0
  -18.6838    0.8698  -14.9330 N   0  0  0  0  0  0  0  0  0  0  0  0
  -18.6620   -0.0208  -15.4160 H   0  0  0  0  0  0  0  0  0  0  0  0
  -22.3217    0.9079  -14.1596 C   0  0  0  0  0  0  0  0  0  0  0  0
  -22.5540    2.2681  -13.9539 C   0  0  0  0  0  0  0  0  0  0  0  0
  -21.5079    3.1741  -14.0915 C   0  0  0  0  0  0  0  0  0  0  0  0
  -20.2361    2.7129  -14.4375 C   0  0  0  0  0  0  0  0  0  0  0  0
  -19.9857    1.3504  -14.6706 C   0  0  0  0  0  0  0  0  0  0  0  0
  -21.0431    0.4504  -14.5021 C   0  0  0  0  0  0  0  0  0  0  0  0
  -24.3043   -0.8088  -13.9359 C   0  0  0  0  0  0  0  0  0  0  0  0
  -23.3991   -0.0199  -14.0286 C   0  0  0  0  0  0  0  0  0  0  0  0
  -12.3289    1.1359  -13.5739 O   0  0  0  0  0  0  0  0  0  0  0  0
  -11.3644    0.2188  -13.1326 C   0  0  0  0  0  0  0  0  0  0  0  0
  -14.5669   -1.1764  -12.7954 O   0  0  0  0  0  0  0  0  0  0  0  0
  -13.9560   -2.2628  -13.4564 C   0  0  0  0  0  0  0  0  0  0  0  0
  -14.9077   -3.2977  -14.0542 C   0  0  0  0  0  0  0  0  0  0  0  0
  -16.1660   -3.2925  -13.1688 C   0  0  0  0  0  0  0  0  0  0  0  0
  -16.0619   -4.1705  -11.9323 C   0  0  0  0  0  0  0  0  0  0  0  0
  -16.4364   -5.6199  -12.2677 C   0  0  0  0  0  0  0  0  0  0  0  0
  -15.2170   -6.5268  -12.1542 C   0  0  0  0  0  0  0  0  0  0  0  0
  -14.9785   -7.3630  -13.3922 C   0  0  0  0  0  0  0  0  0  0  0  0
  -14.6765   -8.5522  -13.3915 O   0  0  0  0  0  0  0  0  0  0  0  0
  -15.1403   -6.6459  -14.5547 N   0  0  0  0  0  0  0  0  0  0  0  0
  -14.8594   -7.3263  -15.7594 O   0  0  0  0  0  0  0  0  0  0  0  0
  -15.1841   -5.6336  -14.5971 H   0  0  0  0  0  0  0  0  0  0  0  0
  -14.6387   -8.2304  -15.4429 H   0  0  0  0  0  0  0  0  0  0  0  0
 19 20  3  0  0  0
 20 13  1  0  0  0
 13 14  1  0  0  0
 13 18  2  0  0  0
 14 15  2  0  0  0
 15 16  1  0  0  0
 16 17  2  0  0  0
 17 11  1  0  0  0
 17 18  1  0  0  0
 11  1  1  0  0  0
 11 12  1  0  0  0
  1  2  1  0  0  0
  1 10  2  0  0  0
  2  3  2  0  0  0
  3  4  1  0  0  0
  4  5  2  0  0  0
  5  6  1  0  0  0
  5 10  1  0  0  0
  6  7  2  0  0  0
  7 21  1  0  0  0
  7  8  1  0  0  0
 21 22  1  0  0  0
  8 23  1  0  0  0
  8  9  2  0  0  0
 23 24  1  0  0  0
 24 25  1  0  0  0
 25 26  1  0  0  0
 26 27  1  0  0  0
 27 28  1  0  0  0
 28 29  1  0  0  0
 29 30  1  0  0  0
 30 31  2  0  0  0
 30 32  1  0  0  0
 32 33  1  0  0  0
 32 34  1  0  0  0
 33 35  1  0  0  0
  9 10  1  0  0  0
M  END
> <minimizedAffinity>
-8.38459

$$$$
