CHEMBL3898689


 37 40  0  0  0  0  0  0  0  0999 V2000
  -12.7608    1.3986  -14.5682 C   0  0  0  0  0  0  0  0  0  0  0  0
  -13.0430   -0.0052  -14.1051 C   0  0  0  0  0  0  0  0  0  0  0  0
  -12.0117   -0.6287  -13.3629 C   0  0  0  0  0  0  0  0  0  0  0  0
  -12.1811   -1.8779  -12.7656 C   0  0  0  0  0  0  0  0  0  0  0  0
  -13.3728   -2.5529  -12.9671 C   0  0  0  0  0  0  0  0  0  0  0  0
  -14.3890   -1.9677  -13.7363 C   0  0  0  0  0  0  0  0  0  0  0  0
  -14.2599   -0.6928  -14.3141 C   0  0  0  0  0  0  0  0  0  0  0  0
  -15.3056   -0.1220  -15.1102 N   0  0  0  0  0  0  0  0  0  0  0  0
  -16.4147    0.5730  -14.6240 C   0  0  0  0  0  0  0  0  0  0  0  0
  -16.5967    0.8948  -13.4551 O   0  0  0  0  0  0  0  0  0  0  0  0
  -17.3616    0.8367  -15.6123 N   0  0  0  0  0  0  0  0  0  0  0  0
  -15.1819   -0.1396  -16.1091 H   0  0  0  0  0  0  0  0  0  0  0  0
  -17.4453    0.1081  -16.3067 H   0  0  0  0  0  0  0  0  0  0  0  0
  -18.5725    1.5111  -15.2761 C   0  0  0  0  0  0  0  0  0  0  0  0
  -18.6565    2.8912  -15.4757 C   0  0  0  0  0  0  0  0  0  0  0  0
  -19.8545    3.5692  -15.2258 C   0  0  0  0  0  0  0  0  0  0  0  0
  -20.9588    2.8856  -14.7188 C   0  0  0  0  0  0  0  0  0  0  0  0
  -20.8841    1.5091  -14.4651 C   0  0  0  0  0  0  0  0  0  0  0  0
  -19.6877    0.8267  -14.7682 C   0  0  0  0  0  0  0  0  0  0  0  0
  -22.0600    0.7746  -13.8661 C   0  0  0  0  0  0  0  0  0  0  0  0
  -22.3999   -0.3537  -14.5562 F   0  0  0  0  0  0  0  0  0  0  0  0
  -21.8466    0.3709  -12.5847 F   0  0  0  0  0  0  0  0  0  0  0  0
  -23.1904    1.5355  -13.8397 F   0  0  0  0  0  0  0  0  0  0  0  0
  -11.1967   -2.5127  -12.0369 O   0  0  0  0  0  0  0  0  0  0  0  0
  -11.5943   -3.4456  -11.0803 C   0  0  0  0  0  0  0  0  0  0  0  0
  -11.6454   -4.7704  -11.4711 C   0  0  0  0  0  0  0  0  0  0  0  0
  -12.0592   -5.6640  -10.5040 C   0  0  0  0  0  0  0  0  0  0  0  0
  -12.3489   -5.2687   -9.2584 N   0  0  0  0  0  0  0  0  0  0  0  0
  -12.2792   -3.9652   -8.9876 C   0  0  0  0  0  0  0  0  0  0  0  0
  -11.9358   -3.0154   -9.8535 N   0  0  0  0  0  0  0  0  0  0  0  0
  -12.1846   -7.0215  -10.8387 N   0  0  0  0  0  0  0  0  0  0  0  0
  -13.2557   -7.5380  -11.5513 C   0  0  0  0  0  0  0  0  0  0  0  0
  -14.2234   -6.9348  -11.9852 O   0  0  0  0  0  0  0  0  0  0  0  0
  -11.4421   -7.6478  -10.5784 H   0  0  0  0  0  0  0  0  0  0  0  0
  -13.1675   -9.0104  -11.7737 C   0  0  0  0  0  0  0  0  0  0  0  0
  -11.8107   -9.6589  -12.0472 C   0  0  0  0  0  0  0  0  0  0  0  0
  -12.8003   -9.5063  -13.1640 C   0  0  0  0  0  0  0  0  0  0  0  0
  1  2  1  0  0  0
  2  3  1  0  0  0
  2  7  2  0  0  0
  3  4  2  0  0  0
  4 24  1  0  0  0
  4  5  1  0  0  0
 24 25  1  0  0  0
 25 26  1  0  0  0
 25 30  2  0  0  0
 26 27  2  0  0  0
 27 31  1  0  0  0
 27 28  1  0  0  0
 31 32  1  0  0  0
 31 34  1  0  0  0
 32 33  2  0  0  0
 32 35  1  0  0  0
 35 36  1  0  0  0
 35 37  1  0  0  0
 36 37  1  0  0  0
 28 29  2  0  0  0
 29 30  1  0  0  0
  5  6  2  0  0  0
  6  7  1  0  0  0
  7  8  1  0  0  0
  8  9  1  0  0  0
  8 12  1  0  0  0
  9 10  2  0  0  0
  9 11  1  0  0  0
 11 14  1  0  0  0
 11 13  1  0  0  0
 14 15  1  0  0  0
 14 19  2  0  0  0
 15 16  2  0  0  0
 16 17  1  0  0  0
 17 18  2  0  0  0
 18 20  1  0  0  0
 18 19  1  0  0  0
 20 21  1  0  0  0
 20 22  1  0  0  0
 20 23  1  0  0  0
M  END
> <minimizedAffinity>
-9.85727

$$$$
