CHEMBL151067


 29 32  0  0  0  0  0  0  0  0999 V2000
  -28.8095   -6.2422   -4.9515 C   0  0  0  0  0  0  0  0  0  0  0  0
  -28.2199   -7.4869   -5.1982 C   0  0  0  0  0  0  0  0  0  0  0  0
  -28.4618   -8.1830   -6.4101 C   0  0  0  0  0  0  0  0  0  0  0  0
  -27.9506   -9.4436   -6.7399 C   0  0  0  0  0  0  0  0  0  0  0  0
  -28.2075  -10.0250   -7.9316 N   0  0  0  0  0  0  0  0  0  0  0  0
  -28.9842   -9.3578   -8.7817 C   0  0  0  0  0  0  0  0  0  0  0  0
  -29.5517   -8.1744   -8.5525 N   0  0  0  0  0  0  0  0  0  0  0  0
  -29.2919   -7.6124   -7.3733 C   0  0  0  0  0  0  0  0  0  0  0  0
  -29.9267   -6.4219   -7.0807 C   0  0  0  0  0  0  0  0  0  0  0  0
  -29.7627   -5.7543   -5.8570 C   0  0  0  0  0  0  0  0  0  0  0  0
  -27.4559   -4.5447   -4.0006 C   0  0  0  0  0  0  0  0  0  0  0  0
  -28.5142   -5.4965   -3.8405 O   0  0  0  0  0  0  0  0  0  0  0  0
  -27.1800  -10.1694   -5.7960 N   0  0  0  0  0  0  0  0  0  0  0  0
  -27.4224   -9.8917   -4.8473 H   0  0  0  0  0  0  0  0  0  0  0  0
  -25.7893  -10.3903   -5.9398 C   0  0  0  0  0  0  0  0  0  0  0  0
  -25.3043  -11.2917   -6.8983 C   0  0  0  0  0  0  0  0  0  0  0  0
  -23.9353  -11.4295   -7.1189 C   0  0  0  0  0  0  0  0  0  0  0  0
  -23.0370  -10.6816   -6.3601 C   0  0  0  0  0  0  0  0  0  0  0  0
  -21.3519  -10.8056   -6.6774 Cl  0  0  0  0  0  0  0  0  0  0  0  0
  -23.4946   -9.8268   -5.3592 C   0  0  0  0  0  0  0  0  0  0  0  0
  -24.8651   -9.6957   -5.1539 C   0  0  0  0  0  0  0  0  0  0  0  0
  -25.3067   -8.8519   -4.2071 F   0  0  0  0  0  0  0  0  0  0  0  0
  -30.5180   -4.6485   -5.5077 O   0  0  0  0  0  0  0  0  0  0  0  0
  -30.4335   -3.5744   -6.4657 C   0  0  0  0  0  0  0  0  0  0  0  0
  -29.4696   -2.4708   -6.1410 C   0  0  0  0  0  0  0  0  0  0  0  0
  -28.2735   -2.1370   -6.8468 C   0  0  0  0  0  0  0  0  0  0  0  0
  -27.5547   -1.1317   -6.2353 C   0  0  0  0  0  0  0  0  0  0  0  0
  -28.3252   -0.5615   -4.8237 S   0  0  0  0  0  0  0  0  0  0  0  0
  -29.6112   -1.6668   -5.0215 C   0  0  0  0  0  0  0  0  0  0  0  0
 11 12  1  0  0  0
 12  1  1  0  0  0
  1  2  1  0  0  0
  1 10  2  0  0  0
  2  3  2  0  0  0
  3  4  1  0  0  0
  3  8  1  0  0  0
  4 13  1  0  0  0
  4  5  2  0  0  0
 13 15  1  0  0  0
 13 14  1  0  0  0
 15 16  1  0  0  0
 15 21  2  0  0  0
 16 17  2  0  0  0
 17 18  1  0  0  0
 18 19  1  0  0  0
 18 20  2  0  0  0
 20 21  1  0  0  0
 21 22  1  0  0  0
  5  6  1  0  0  0
  6  7  2  0  0  0
  7  8  1  0  0  0
  8  9  2  0  0  0
  9 10  1  0  0  0
 10 23  1  0  0  0
 23 24  1  0  0  0
 24 25  1  0  0  0
 25 26  1  0  0  0
 25 29  2  0  0  0
 26 27  2  0  0  0
 27 28  1  0  0  0
 28 29  1  0  0  0
M  END
> <minimizedAffinity>
-7.41439

$$$$
