CHEMBL3780741


 44 48  0  0  0  0  0  0  0  0999 V2000
  -22.7989   -0.4075  -13.9669 C   0  0  0  0  0  0  0  0  0  0  0  0
  -23.1144    0.9157  -13.6589 C   0  0  0  0  0  0  0  0  0  0  0  0
  -22.2099    1.9547  -13.9174 C   0  0  0  0  0  0  0  0  0  0  0  0
  -20.9492    1.7065  -14.4630 C   0  0  0  0  0  0  0  0  0  0  0  0
  -20.5891    0.3775  -14.6885 C   0  0  0  0  0  0  0  0  0  0  0  0
  -21.4962   -0.6638  -14.4180 C   0  0  0  0  0  0  0  0  0  0  0  0
  -20.0359    2.7323  -14.8206 N   0  0  0  0  0  0  0  0  0  0  0  0
  -18.7625    2.5411  -15.3207 C   0  0  0  0  0  0  0  0  0  0  0  0
  -18.2809    1.4515  -15.6299 O   0  0  0  0  0  0  0  0  0  0  0  0
  -18.0334    3.7201  -15.4045 N   0  0  0  0  0  0  0  0  0  0  0  0
  -20.3761    3.6854  -14.7736 H   0  0  0  0  0  0  0  0  0  0  0  0
  -18.2410    4.3893  -14.6774 H   0  0  0  0  0  0  0  0  0  0  0  0
  -16.6955    3.6919  -15.8736 C   0  0  0  0  0  0  0  0  0  0  0  0
  -15.7365    2.9973  -15.1445 C   0  0  0  0  0  0  0  0  0  0  0  0
  -14.4352    2.8890  -15.6414 C   0  0  0  0  0  0  0  0  0  0  0  0
  -14.0677    3.5027  -16.8485 C   0  0  0  0  0  0  0  0  0  0  0  0
  -12.4223    3.3135  -17.3318 Cl  0  0  0  0  0  0  0  0  0  0  0  0
  -15.0096    4.2218  -17.5885 C   0  0  0  0  0  0  0  0  0  0  0  0
  -16.3248    4.3102  -17.0769 C   0  0  0  0  0  0  0  0  0  0  0  0
  -14.7331    4.8984  -18.9075 C   0  0  0  0  0  0  0  0  0  0  0  0
  -13.7601    4.3462  -19.6788 F   0  0  0  0  0  0  0  0  0  0  0  0
  -15.8398    4.9401  -19.7041 F   0  0  0  0  0  0  0  0  0  0  0  0
  -14.3598    6.2009  -18.7389 F   0  0  0  0  0  0  0  0  0  0  0  0
  -23.7672   -1.4184  -13.7365 N   0  0  0  0  0  0  0  0  0  0  0  0
  -23.3793   -2.3406  -13.9032 H   0  0  0  0  0  0  0  0  0  0  0  0
  -26.3861   -1.2811  -10.5133 C   0  0  0  0  0  0  0  0  0  0  0  0
  -25.0517   -1.2293  -10.3324 N   0  0  0  0  0  0  0  0  0  0  0  0
  -24.2198   -1.3477  -11.3964 N   0  0  0  0  0  0  0  0  0  0  0  0
  -24.6887   -1.4779  -12.6540 C   0  0  0  0  0  0  0  0  0  0  0  0
  -26.0785   -1.6228  -12.8880 C   0  0  0  0  0  0  0  0  0  0  0  0
  -26.6614   -1.8121  -14.1704 C   0  0  0  0  0  0  0  0  0  0  0  0
  -28.0380   -1.9851  -14.3380 C   0  0  0  0  0  0  0  0  0  0  0  0
  -28.8754   -1.9655  -13.2317 C   0  0  0  0  0  0  0  0  0  0  0  0
  -28.3377   -1.7430  -11.9654 C   0  0  0  0  0  0  0  0  0  0  0  0
  -26.9508   -1.5585  -11.7683 C   0  0  0  0  0  0  0  0  0  0  0  0
  -27.1879   -0.8929   -9.2945 C   0  0  0  0  0  0  0  0  0  0  0  0
  -28.6265   -4.0587   -6.7145 C   0  0  0  0  0  0  0  0  0  0  0  0
  -28.3672   -2.7957   -6.1855 C   0  0  0  0  0  0  0  0  0  0  0  0
  -27.8843   -1.7680   -7.0020 C   0  0  0  0  0  0  0  0  0  0  0  0
  -27.6334   -1.9936   -8.3612 C   0  0  0  0  0  0  0  0  0  0  0  0
  -27.9201   -3.2604   -8.8918 C   0  0  0  0  0  0  0  0  0  0  0  0
  -28.4082   -4.2824   -8.0741 C   0  0  0  0  0  0  0  0  0  0  0  0
  -28.6982   -6.4172   -6.4919 C   0  0  0  0  0  0  0  0  0  0  0  0
  -29.0996   -5.1373   -6.0175 O   0  0  0  0  0  0  0  0  0  0  0  0
 43 44  1  0  0  0
 44 37  1  0  0  0
 37 38  1  0  0  0
 37 42  2  0  0  0
 38 39  2  0  0  0
 39 40  1  0  0  0
 40 36  1  0  0  0
 40 41  2  0  0  0
 36 26  1  0  0  0
 26 27  1  0  0  0
 26 35  2  0  0  0
 27 28  2  0  0  0
 28 29  1  0  0  0
 29 24  1  0  0  0
 29 30  2  0  0  0
 24  1  1  0  0  0
 24 25  1  0  0  0
  1  2  1  0  0  0
  1  6  2  0  0  0
  2  3  2  0  0  0
  3  4  1  0  0  0
  4  7  1  0  0  0
  4  5  2  0  0  0
  7  8  1  0  0  0
  7 11  1  0  0  0
  8  9  2  0  0  0
  8 10  1  0  0  0
 10 13  1  0  0  0
 10 12  1  0  0  0
 13 14  1  0  0  0
 13 19  2  0  0  0
 14 15  2  0  0  0
 15 16  1  0  0  0
 16 17  1  0  0  0
 16 18  2  0  0  0
 18 20  1  0  0  0
 18 19  1  0  0  0
 20 21  1  0  0  0
 20 22  1  0  0  0
 20 23  1  0  0  0
  5  6  1  0  0  0
 30 31  1  0  0  0
 30 35  1  0  0  0
 31 32  2  0  0  0
 32 33  1  0  0  0
 33 34  2  0  0  0
 34 35  1  0  0  0
 41 42  1  0  0  0
M  END
> <minimizedAffinity>
-9.12131

$$$$
