CHEMBL1241945


 24 26  0  0  0  0  0  0  0  0999 V2000
  -29.7889   -6.0486   -6.9628 N   0  0  0  0  0  0  0  0  0  0  0  0
  -29.6639   -4.7672   -7.3700 N   0  0  0  0  0  0  0  0  0  0  0  0
  -29.3349   -4.0866   -6.2543 C   0  0  0  0  0  0  0  0  0  0  0  0
  -29.3299   -4.9509   -5.1078 C   0  0  0  0  0  0  0  0  0  0  0  0
  -29.1168   -4.8836   -3.7208 C   0  0  0  0  0  0  0  0  0  0  0  0
  -28.8679   -3.7270   -2.9932 N   0  0  0  0  0  0  0  0  0  0  0  0
  -29.1687   -6.0201   -2.9966 N   0  0  0  0  0  0  0  0  0  0  0  0
  -29.4371   -7.1762   -3.6273 C   0  0  0  0  0  0  0  0  0  0  0  0
  -29.6781   -7.3637   -4.9316 N   0  0  0  0  0  0  0  0  0  0  0  0
  -29.6084   -6.2086   -5.6178 C   0  0  0  0  0  0  0  0  0  0  0  0
  -29.3898   -2.9195   -3.3081 H   0  0  0  0  0  0  0  0  0  0  0  0
  -28.9516   -3.9291   -2.0008 H   0  0  0  0  0  0  0  0  0  0  0  0
  -29.0309   -2.6514   -6.3462 C   0  0  0  0  0  0  0  0  0  0  0  0
  -28.0071   -2.1755   -7.1796 C   0  0  0  0  0  0  0  0  0  0  0  0
  -27.6999   -0.8119   -7.2487 C   0  0  0  0  0  0  0  0  0  0  0  0
  -28.4582    0.0973   -6.5234 C   0  0  0  0  0  0  0  0  0  0  0  0
  -28.1914    1.4346   -6.5893 O   0  0  0  0  0  0  0  0  0  0  0  0
  -29.5102   -0.3550   -5.7298 C   0  0  0  0  0  0  0  0  0  0  0  0
  -30.2686    0.5188   -5.0512 F   0  0  0  0  0  0  0  0  0  0  0  0
  -29.7948   -1.7162   -5.6307 C   0  0  0  0  0  0  0  0  0  0  0  0
  -27.4697    1.5871   -7.2164 H   0  0  0  0  0  0  0  0  0  0  0  0
  -28.7680   -7.9277   -8.2178 C   0  0  0  0  0  0  0  0  0  0  0  0
  -30.0289   -7.1121   -7.9316 C   0  0  0  0  0  0  0  0  0  0  0  0
  -31.1832   -8.0118   -7.4898 C   0  0  0  0  0  0  0  0  0  0  0  0
 22 23  1  0  0  0
 23 24  1  0  0  0
 23  1  1  0  0  0
  1  2  1  0  0  0
  1 10  1  0  0  0
  2  3  2  0  0  0
  3 13  1  0  0  0
  3  4  1  0  0  0
 13 14  1  0  0  0
 13 20  2  0  0  0
 14 15  2  0  0  0
 15 16  1  0  0  0
 16 17  1  0  0  0
 16 18  2  0  0  0
 17 21  1  0  0  0
 18 19  1  0  0  0
 18 20  1  0  0  0
  4  5  1  0  0  0
  4 10  2  0  0  0
  5  6  1  0  0  0
  5  7  2  0  0  0
  6 11  1  0  0  0
  6 12  1  0  0  0
  7  8  1  0  0  0
  8  9  2  0  0  0
  9 10  1  0  0  0
M  END
> <minimizedAffinity>
-7.97912

$$$$
