CHEMBL1997007


 27 29  0  0  0  0  0  0  0  0999 V2000
  -28.1193   -2.2743  -10.1107 N   0  0  0  0  0  0  0  0  0  0  0  0
  -28.4447   -3.2217  -10.2623 H   0  0  0  0  0  0  0  0  0  0  0  0
  -28.0716   -2.0780   -8.7234 C   0  0  0  0  0  0  0  0  0  0  0  0
  -28.3072   -3.1382   -7.9189 N   0  0  0  0  0  0  0  0  0  0  0  0
  -28.3523   -2.9884   -6.5676 C   0  0  0  0  0  0  0  0  0  0  0  0
  -28.1674   -1.7040   -6.0533 C   0  0  0  0  0  0  0  0  0  0  0  0
  -28.1836   -1.0935   -4.7706 C   0  0  0  0  0  0  0  0  0  0  0  0
  -27.9059    0.2466   -4.9439 C   0  0  0  0  0  0  0  0  0  0  0  0
  -27.7109    0.4642   -6.2848 N   0  0  0  0  0  0  0  0  0  0  0  0
  -27.8941   -0.7046   -6.9736 C   0  0  0  0  0  0  0  0  0  0  0  0
  -27.8248   -0.8254   -8.3070 N   0  0  0  0  0  0  0  0  0  0  0  0
  -27.4843    1.3456   -6.7222 H   0  0  0  0  0  0  0  0  0  0  0  0
  -28.6099   -4.2219   -5.7514 C   0  0  0  0  0  0  0  0  0  0  0  0
  -30.0542   -4.3201   -5.2869 C   0  0  0  0  0  0  0  0  0  0  0  0
  -25.1128   -1.1486  -12.8572 C   0  0  0  0  0  0  0  0  0  0  0  0
  -24.8360   -1.1382  -11.4881 C   0  0  0  0  0  0  0  0  0  0  0  0
  -25.8253   -1.5178  -10.5777 C   0  0  0  0  0  0  0  0  0  0  0  0
  -27.1084   -1.8857  -11.0112 C   0  0  0  0  0  0  0  0  0  0  0  0
  -27.3637   -1.9284  -12.3846 C   0  0  0  0  0  0  0  0  0  0  0  0
  -26.3817   -1.5404  -13.3017 C   0  0  0  0  0  0  0  0  0  0  0  0
  -22.8790   -0.3219  -13.3879 N   0  0  0  0  0  0  0  0  0  0  0  0
  -24.1125   -0.7121  -13.8678 C   0  0  0  0  0  0  0  0  0  0  0  0
  -24.3961   -0.7340  -15.0581 O   0  0  0  0  0  0  0  0  0  0  0  0
  -22.6685   -0.3996  -12.4034 H   0  0  0  0  0  0  0  0  0  0  0  0
  -21.8372    0.1534  -14.2746 C   0  0  0  0  0  0  0  0  0  0  0  0
  -20.3759    2.1164  -14.9446 C   0  0  0  0  0  0  0  0  0  0  0  0
  -21.4937    1.6225  -14.0370 C   0  0  0  0  0  0  0  0  0  0  0  0
 26 27  1  0  0  0
 27 25  1  0  0  0
 25 21  1  0  0  0
 21 22  1  0  0  0
 21 24  1  0  0  0
 22 23  2  0  0  0
 22 15  1  0  0  0
 15 16  1  0  0  0
 15 20  2  0  0  0
 16 17  2  0  0  0
 17 18  1  0  0  0
 18  1  1  0  0  0
 18 19  2  0  0  0
  1  3  1  0  0  0
  1  2  1  0  0  0
  3  4  1  0  0  0
  3 11  2  0  0  0
  4  5  2  0  0  0
  5 13  1  0  0  0
  5  6  1  0  0  0
 13 14  1  0  0  0
  6  7  1  0  0  0
  6 10  2  0  0  0
  7  8  2  0  0  0
  8  9  1  0  0  0
  9 10  1  0  0  0
  9 12  1  0  0  0
 10 11  1  0  0  0
 19 20  1  0  0  0
M  END
> <minimizedAffinity>
-8.74239

$$$$
