CHEMBL3915043


 36 40  0  0  0  0  0  0  0  0999 V2000
  -32.3800   -8.1003   -7.2470 C   0  0  0  0  0  0  0  0  0  0  0  0
  -31.0775   -7.9328   -6.9508 C   0  0  0  0  0  0  0  0  0  0  0  0
  -30.7466   -6.8404   -6.0035 C   0  0  0  0  0  0  0  0  0  0  0  0
  -31.4458   -6.6285   -4.8020 C   0  0  0  0  0  0  0  0  0  0  0  0
  -31.0081   -5.6683   -3.8606 C   0  0  0  0  0  0  0  0  0  0  0  0
  -29.7548   -5.0530   -4.0735 C   0  0  0  0  0  0  0  0  0  0  0  0
  -28.8683   -4.0865   -3.4722 C   0  0  0  0  0  0  0  0  0  0  0  0
  -27.6206   -4.5655   -3.6729 N   0  0  0  0  0  0  0  0  0  0  0  0
  -27.7438   -5.0841   -4.9094 N   0  0  0  0  0  0  0  0  0  0  0  0
  -29.0325   -5.4425   -5.1972 C   0  0  0  0  0  0  0  0  0  0  0  0
  -29.5562   -6.1556   -6.2632 C   0  0  0  0  0  0  0  0  0  0  0  0
  -26.9056   -5.2930   -5.4399 H   0  0  0  0  0  0  0  0  0  0  0  0
  -28.9169   -2.6360   -3.5805 C   0  0  0  0  0  0  0  0  0  0  0  0
  -29.8915   -1.9906   -4.2669 C   0  0  0  0  0  0  0  0  0  0  0  0
  -29.5948   -0.9524   -5.2900 C   0  0  0  0  0  0  0  0  0  0  0  0
  -30.3562    0.2406   -5.3413 C   0  0  0  0  0  0  0  0  0  0  0  0
  -29.9180    1.3348   -6.0981 C   0  0  0  0  0  0  0  0  0  0  0  0
  -28.7179    1.2579   -6.7997 C   0  0  0  0  0  0  0  0  0  0  0  0
  -27.9644    0.1006   -6.7707 C   0  0  0  0  0  0  0  0  0  0  0  0
  -28.3929   -1.0044   -6.0057 C   0  0  0  0  0  0  0  0  0  0  0  0
  -30.0122   -8.7355   -7.6387 C   0  0  0  0  0  0  0  0  0  0  0  0
  -30.1348   -9.1051   -8.9851 C   0  0  0  0  0  0  0  0  0  0  0  0
  -29.1175   -9.8076   -9.6253 C   0  0  0  0  0  0  0  0  0  0  0  0
  -27.9376  -10.1028   -8.9477 C   0  0  0  0  0  0  0  0  0  0  0  0
  -27.7392   -9.6817   -7.6316 C   0  0  0  0  0  0  0  0  0  0  0  0
  -28.7984   -9.0366   -6.9723 C   0  0  0  0  0  0  0  0  0  0  0  0
  -26.5033   -9.8590   -6.9497 N   0  0  0  0  0  0  0  0  0  0  0  0
  -26.2246  -10.9178   -6.0907 C   0  0  0  0  0  0  0  0  0  0  0  0
  -26.9829  -11.8508   -5.8389 O   0  0  0  0  0  0  0  0  0  0  0  0
  -25.7325   -9.2775   -7.2485 H   0  0  0  0  0  0  0  0  0  0  0  0
  -24.8727  -10.9693   -5.4626 C   0  0  0  0  0  0  0  0  0  0  0  0
  -24.6456  -11.3868   -4.1477 C   0  0  0  0  0  0  0  0  0  0  0  0
  -23.3321  -11.5089   -3.6757 C   0  0  0  0  0  0  0  0  0  0  0  0
  -22.2483  -11.2160   -4.5075 C   0  0  0  0  0  0  0  0  0  0  0  0
  -22.4691  -10.7917   -5.8136 C   0  0  0  0  0  0  0  0  0  0  0  0
  -23.7745  -10.6701   -6.2882 C   0  0  0  0  0  0  0  0  0  0  0  0
  1  2  2  0  0  0
  2 21  1  0  0  0
  2  3  1  0  0  0
 21 22  1  0  0  0
 21 26  2  0  0  0
 22 23  2  0  0  0
 23 24  1  0  0  0
 24 25  2  0  0  0
 25 27  1  0  0  0
 25 26  1  0  0  0
 27 28  1  0  0  0
 27 30  1  0  0  0
 28 29  2  0  0  0
 28 31  1  0  0  0
 31 32  1  0  0  0
 31 36  2  0  0  0
 32 33  2  0  0  0
 33 34  1  0  0  0
 34 35  2  0  0  0
 35 36  1  0  0  0
  3  4  1  0  0  0
  3 11  2  0  0  0
  4  5  2  0  0  0
  5  6  1  0  0  0
  6  7  1  0  0  0
  6 10  2  0  0  0
  7 13  1  0  0  0
  7  8  2  0  0  0
 13 14  2  0  0  0
 14 15  1  0  0  0
 15 16  1  0  0  0
 15 20  2  0  0  0
 16 17  2  0  0  0
 17 18  1  0  0  0
 18 19  2  0  0  0
 19 20  1  0  0  0
  8  9  1  0  0  0
  9 10  1  0  0  0
  9 12  1  0  0  0
 10 11  1  0  0  0
M  END
> <minimizedAffinity>
-10.07406

$$$$
