CHEMBL328644


 19 21  0  0  0  0  0  0  0  0999 V2000
  -28.6933   -5.8815   -6.7890 C   0  0  0  0  0  0  0  0  0  0  0  0
  -28.3482   -5.8952   -5.5224 N   0  0  0  0  0  0  0  0  0  0  0  0
  -28.3510   -4.6271   -5.0038 C   0  0  0  0  0  0  0  0  0  0  0  0
  -28.6264   -3.6093   -5.8949 C   0  0  0  0  0  0  0  0  0  0  0  0
  -28.8849   -4.2969   -7.4484 S   0  0  0  0  0  0  0  0  0  0  0  0
  -28.6733   -2.1685   -5.6393 C   0  0  0  0  0  0  0  0  0  0  0  0
  -27.4950   -1.5027   -5.2622 C   0  0  0  0  0  0  0  0  0  0  0  0
  -27.5010   -0.1397   -4.9698 C   0  0  0  0  0  0  0  0  0  0  0  0
  -28.6893    0.5798   -5.0506 C   0  0  0  0  0  0  0  0  0  0  0  0
  -29.8682   -0.0647   -5.4220 C   0  0  0  0  0  0  0  0  0  0  0  0
  -29.8632   -1.4306   -5.7130 C   0  0  0  0  0  0  0  0  0  0  0  0
  -28.9022   -6.9758   -7.5635 N   0  0  0  0  0  0  0  0  0  0  0  0
  -28.3749   -7.0332   -8.4237 H   0  0  0  0  0  0  0  0  0  0  0  0
  -32.4571   -9.2713   -7.7244 C   0  0  0  0  0  0  0  0  0  0  0  0
  -32.4431   -8.0881   -7.0000 C   0  0  0  0  0  0  0  0  0  0  0  0
  -31.2738   -7.3323   -6.9339 C   0  0  0  0  0  0  0  0  0  0  0  0
  -30.1043   -7.7189   -7.6051 C   0  0  0  0  0  0  0  0  0  0  0  0
  -30.1268   -8.9430   -8.2929 C   0  0  0  0  0  0  0  0  0  0  0  0
  -31.2982   -9.7059   -8.3589 C   0  0  0  0  0  0  0  0  0  0  0  0
 14 15  1  0  0  0
 14 19  2  0  0  0
 15 16  2  0  0  0
 16 17  1  0  0  0
 17 12  1  0  0  0
 17 18  2  0  0  0
 12  1  1  0  0  0
 12 13  1  0  0  0
  1  2  2  0  0  0
  1  5  1  0  0  0
  2  3  1  0  0  0
  3  4  2  0  0  0
  4  6  1  0  0  0
  4  5  1  0  0  0
  6  7  1  0  0  0
  6 11  2  0  0  0
  7  8  2  0  0  0
  8  9  1  0  0  0
  9 10  2  0  0  0
 10 11  1  0  0  0
 18 19  1  0  0  0
M  END
> <minimizedAffinity>
-7.29278

$$$$
