CHEMBL3690492


 40 44  0  0  0  0  0  0  0  0999 V2000
  -15.1046   -5.4835  -12.2496 C   0  0  0  0  0  0  0  0  0  0  0  0
  -16.1623   -5.2631  -11.3783 C   0  0  0  0  0  0  0  0  0  0  0  0
  -16.5543   -3.9538  -11.3567 N   0  0  0  0  0  0  0  0  0  0  0  0
  -15.7649   -3.3509  -12.2153 C   0  0  0  0  0  0  0  0  0  0  0  0
  -15.7259   -1.9877  -12.6202 C   0  0  0  0  0  0  0  0  0  0  0  0
  -14.8841   -1.5718  -13.5978 C   0  0  0  0  0  0  0  0  0  0  0  0
  -13.9575   -2.5403  -14.1957 C   0  0  0  0  0  0  0  0  0  0  0  0
  -14.0009   -3.8295  -13.8284 C   0  0  0  0  0  0  0  0  0  0  0  0
  -14.8850   -4.2382  -12.8283 N   0  0  0  0  0  0  0  0  0  0  0  0
  -13.7147   -8.5294  -14.0435 C   0  0  0  0  0  0  0  0  0  0  0  0
  -12.9147   -9.0702  -13.0415 C   0  0  0  0  0  0  0  0  0  0  0  0
  -12.8419   -8.4577  -11.7888 C   0  0  0  0  0  0  0  0  0  0  0  0
  -13.5777   -7.3023  -11.5270 C   0  0  0  0  0  0  0  0  0  0  0  0
  -14.3747   -6.7256  -12.5231 C   0  0  0  0  0  0  0  0  0  0  0  0
  -14.4079   -7.3395  -13.7846 C   0  0  0  0  0  0  0  0  0  0  0  0
  -11.9041   -8.5312  -16.4084 O   0  0  0  0  0  0  0  0  0  0  0  0
  -13.0102   -9.0523  -16.3810 C   0  0  0  0  0  0  0  0  0  0  0  0
  -13.5356   -9.6911  -17.4837 N   0  0  0  0  0  0  0  0  0  0  0  0
  -13.8816   -9.1033  -15.3192 N   0  0  0  0  0  0  0  0  0  0  0  0
  -14.5436   -9.7448  -17.5443 H   0  0  0  0  0  0  0  0  0  0  0  0
  -14.6866   -9.6986  -15.4427 H   0  0  0  0  0  0  0  0  0  0  0  0
  -12.8064   -9.6342  -18.7536 C   0  0  0  0  0  0  0  0  0  0  0  0
  -13.2431   -8.5171  -19.7002 C   0  0  0  0  0  0  0  0  0  0  0  0
  -12.1965   -7.7245  -20.0387 F   0  0  0  0  0  0  0  0  0  0  0  0
  -13.7449   -9.0238  -20.8493 F   0  0  0  0  0  0  0  0  0  0  0  0
  -14.1900   -7.7314  -19.1456 F   0  0  0  0  0  0  0  0  0  0  0  0
  -14.9566   -0.1780  -14.0937 C   0  0  0  0  0  0  0  0  0  0  0  0
  -16.1485    0.4065  -14.4815 C   0  0  0  0  0  0  0  0  0  0  0  0
  -16.1253    1.6673  -15.0719 C   0  0  0  0  0  0  0  0  0  0  0  0
  -14.9289    2.3342  -15.2865 C   0  0  0  0  0  0  0  0  0  0  0  0
  -13.7897    1.7275  -14.8912 N   0  0  0  0  0  0  0  0  0  0  0  0
  -13.7964    0.4729  -14.2915 N   0  0  0  0  0  0  0  0  0  0  0  0
  -14.8916    3.5450  -15.9433 N   0  0  0  0  0  0  0  0  0  0  0  0
  -15.9555    4.0120  -16.8221 C   0  0  0  0  0  0  0  0  0  0  0  0
  -15.3350    4.4574  -18.1445 C   0  0  0  0  0  0  0  0  0  0  0  0
  -14.2498    5.5074  -17.9114 C   0  0  0  0  0  0  0  0  0  0  0  0
  -13.1969    5.0160  -16.9098 C   0  0  0  0  0  0  0  0  0  0  0  0
  -12.2608    6.0618  -16.6586 O   0  0  0  0  0  0  0  0  0  0  0  0
  -13.8578    4.5217  -15.6045 C   0  0  0  0  0  0  0  0  0  0  0  0
  -12.7433    6.8189  -16.2859 H   0  0  0  0  0  0  0  0  0  0  0  0
 16 17  2  0  0  0
 17 18  1  0  0  0
 17 19  1  0  0  0
 18 22  1  0  0  0
 18 20  1  0  0  0
 22 23  1  0  0  0
 23 24  1  0  0  0
 23 25  1  0  0  0
 23 26  1  0  0  0
 19 10  1  0  0  0
 19 21  1  0  0  0
 10 11  1  0  0  0
 10 15  2  0  0  0
 11 12  2  0  0  0
 12 13  1  0  0  0
 13 14  2  0  0  0
 14  1  1  0  0  0
 14 15  1  0  0  0
  1  2  2  0  0  0
  1  9  1  0  0  0
  2  3  1  0  0  0
  3  4  2  0  0  0
  4  5  1  0  0  0
  4  9  1  0  0  0
  5  6  2  0  0  0
  6 27  1  0  0  0
  6  7  1  0  0  0
 27 28  1  0  0  0
 27 32  2  0  0  0
 28 29  2  0  0  0
 29 30  1  0  0  0
 30 33  1  0  0  0
 30 31  2  0  0  0
 33 34  1  0  0  0
 33 39  1  0  0  0
 34 35  1  0  0  0
 35 36  1  0  0  0
 36 37  1  0  0  0
 37 38  1  0  0  0
 37 39  1  0  0  0
 38 40  1  0  0  0
 31 32  1  0  0  0
  7  8  2  0  0  0
  8  9  1  0  0  0
M  END
> <minimizedAffinity>
-8.49398

$$$$
