CHEMBL205639


 32 35  0  0  0  0  0  0  0  0999 V2000
  -28.3622   -8.6196   -6.4614 C   0  0  0  0  0  0  0  0  0  0  0  0
  -28.7018   -8.0774   -7.6094 N   0  0  0  0  0  0  0  0  0  0  0  0
  -29.3864   -6.9201   -7.3088 N   0  0  0  0  0  0  0  0  0  0  0  0
  -29.3904   -6.8099   -5.9935 C   0  0  0  0  0  0  0  0  0  0  0  0
  -28.7297   -7.8437   -5.3956 O   0  0  0  0  0  0  0  0  0  0  0  0
  -30.0279   -5.7817   -5.1632 C   0  0  0  0  0  0  0  0  0  0  0  0
  -31.1106   -6.2411   -4.3768 C   0  0  0  0  0  0  0  0  0  0  0  0
  -31.7936   -5.3681   -3.5544 C   0  0  0  0  0  0  0  0  0  0  0  0
  -31.4994   -4.0676   -3.4652 N   0  0  0  0  0  0  0  0  0  0  0  0
  -30.4712   -3.6280   -4.2244 C   0  0  0  0  0  0  0  0  0  0  0  0
  -29.6768   -4.4143   -5.0711 C   0  0  0  0  0  0  0  0  0  0  0  0
  -28.5693   -3.7331   -5.8642 C   0  0  0  0  0  0  0  0  0  0  0  0
  -27.7487   -2.6915   -5.0739 C   0  0  0  0  0  0  0  0  0  0  0  0
  -27.8855   -1.2554   -5.5196 C   0  0  0  0  0  0  0  0  0  0  0  0
  -27.9555   -0.9189   -6.8741 C   0  0  0  0  0  0  0  0  0  0  0  0
  -28.2452    0.3934   -7.2212 C   0  0  0  0  0  0  0  0  0  0  0  0
  -28.4605    1.3795   -6.3251 N   0  0  0  0  0  0  0  0  0  0  0  0
  -28.3863    1.0374   -5.0228 C   0  0  0  0  0  0  0  0  0  0  0  0
  -28.1025   -0.2451   -4.5771 C   0  0  0  0  0  0  0  0  0  0  0  0
  -27.6849   -9.7683   -6.2522 N   0  0  0  0  0  0  0  0  0  0  0  0
  -28.2292  -10.6145   -6.3723 H   0  0  0  0  0  0  0  0  0  0  0  0
  -24.1379  -10.7503   -5.6883 C   0  0  0  0  0  0  0  0  0  0  0  0
  -23.9045  -10.2452   -4.4150 C   0  0  0  0  0  0  0  0  0  0  0  0
  -24.9473   -9.6566   -3.7024 C   0  0  0  0  0  0  0  0  0  0  0  0
  -26.2123   -9.5380   -4.2767 C   0  0  0  0  0  0  0  0  0  0  0  0
  -26.4639   -9.9659   -5.5812 C   0  0  0  0  0  0  0  0  0  0  0  0
  -25.3998  -10.5651   -6.2772 C   0  0  0  0  0  0  0  0  0  0  0  0
  -23.2391  -11.4032   -6.4753 O   0  0  0  0  0  0  0  0  0  0  0  0
  -21.0149  -11.0829   -5.8670 F   0  0  0  0  0  0  0  0  0  0  0  0
  -21.9819  -10.8070   -6.7659 C   0  0  0  0  0  0  0  0  0  0  0  0
  -22.1286   -9.4684   -6.8593 F   0  0  0  0  0  0  0  0  0  0  0  0
  -21.5621  -11.2684   -7.9671 F   0  0  0  0  0  0  0  0  0  0  0  0
 29 30  1  0  0  0
 30 31  1  0  0  0
 30 32  1  0  0  0
 30 28  1  0  0  0
 28 22  1  0  0  0
 22 23  1  0  0  0
 22 27  2  0  0  0
 23 24  2  0  0  0
 24 25  1  0  0  0
 25 26  2  0  0  0
 26 20  1  0  0  0
 26 27  1  0  0  0
 20  1  1  0  0  0
 20 21  1  0  0  0
  1  2  2  0  0  0
  1  5  1  0  0  0
  2  3  1  0  0  0
  3  4  2  0  0  0
  4  6  1  0  0  0
  4  5  1  0  0  0
  6  7  1  0  0  0
  6 11  2  0  0  0
  7  8  2  0  0  0
  8  9  1  0  0  0
  9 10  2  0  0  0
 10 11  1  0  0  0
 11 12  1  0  0  0
 12 13  1  0  0  0
 13 14  1  0  0  0
 14 15  1  0  0  0
 14 19  2  0  0  0
 15 16  2  0  0  0
 16 17  1  0  0  0
 17 18  2  0  0  0
 18 19  1  0  0  0
M  END
> <minimizedAffinity>
-8.19663

$$$$
