CHEMBL3656054


 33 36  0  0  0  0  0  0  0  0999 V2000
  -29.9875   -5.0795   -6.7426 O   0  0  0  0  0  0  0  0  0  0  0  0
  -27.8891   -2.5394   -8.3459 C   0  0  0  0  0  0  0  0  0  0  0  0
  -27.8605   -1.5530   -7.3565 C   0  0  0  0  0  0  0  0  0  0  0  0
  -28.4729   -1.7615   -6.1205 C   0  0  0  0  0  0  0  0  0  0  0  0
  -29.1412   -2.9534   -5.8676 C   0  0  0  0  0  0  0  0  0  0  0  0
  -29.2850   -3.9004   -6.8835 C   0  0  0  0  0  0  0  0  0  0  0  0
  -28.6360   -3.7036   -8.1125 C   0  0  0  0  0  0  0  0  0  0  0  0
  -27.4725   -1.5221  -10.5972 C   0  0  0  0  0  0  0  0  0  0  0  0
  -28.3737   -0.6874  -10.5772 O   0  0  0  0  0  0  0  0  0  0  0  0
  -27.1958   -2.4169   -9.5692 N   0  0  0  0  0  0  0  0  0  0  0  0
  -26.3449   -2.9555   -9.6882 H   0  0  0  0  0  0  0  0  0  0  0  0
  -28.0967   -2.1865  -13.7186 C   0  0  0  0  0  0  0  0  0  0  0  0
  -26.7896   -1.9165  -13.0653 C   0  0  0  0  0  0  0  0  0  0  0  0
  -25.5140   -1.8999  -13.6938 C   0  0  0  0  0  0  0  0  0  0  0  0
  -24.5993   -1.5996  -12.7143 C   0  0  0  0  0  0  0  0  0  0  0  0
  -25.2187   -1.4259  -11.5196 O   0  0  0  0  0  0  0  0  0  0  0  0
  -26.5598   -1.6288  -11.7251 C   0  0  0  0  0  0  0  0  0  0  0  0
  -29.7119   -5.9219   -5.6856 C   0  0  0  0  0  0  0  0  0  0  0  0
  -30.4953   -6.0240   -4.5390 C   0  0  0  0  0  0  0  0  0  0  0  0
  -30.0821   -6.8907   -3.5427 C   0  0  0  0  0  0  0  0  0  0  0  0
  -28.9952   -7.6855   -3.6394 N   0  0  0  0  0  0  0  0  0  0  0  0
  -28.2870   -7.6163   -4.7914 C   0  0  0  0  0  0  0  0  0  0  0  0
  -28.6075   -6.7553   -5.8338 C   0  0  0  0  0  0  0  0  0  0  0  0
  -27.1632   -8.5469   -4.8582 C   0  0  0  0  0  0  0  0  0  0  0  0
  -26.0808   -8.7588   -4.0266 C   0  0  0  0  0  0  0  0  0  0  0  0
  -25.2482   -9.7737   -4.5885 C   0  0  0  0  0  0  0  0  0  0  0  0
  -25.8740  -10.1685   -5.7618 C   0  0  0  0  0  0  0  0  0  0  0  0
  -27.0240   -9.4318   -5.9027 N   0  0  0  0  0  0  0  0  0  0  0  0
  -27.6923   -9.4913   -6.6622 H   0  0  0  0  0  0  0  0  0  0  0  0
  -23.9957  -10.2577   -4.0075 C   0  0  0  0  0  0  0  0  0  0  0  0
  -23.9106  -10.6612   -2.8522 O   0  0  0  0  0  0  0  0  0  0  0  0
  -22.9164  -10.2313   -4.8277 O   0  0  0  0  0  0  0  0  0  0  0  0
  -23.1328   -9.8813   -5.7090 H   0  0  0  0  0  0  0  0  0  0  0  0
 12 13  1  0  0  0
 13 14  1  0  0  0
 13 17  2  0  0  0
 14 15  2  0  0  0
 15 16  1  0  0  0
 16 17  1  0  0  0
 17  8  1  0  0  0
  8  9  2  0  0  0
  8 10  1  0  0  0
 10  2  1  0  0  0
 10 11  1  0  0  0
  2  3  1  0  0  0
  2  7  2  0  0  0
  3  4  2  0  0  0
  4  5  1  0  0  0
  5  6  2  0  0  0
  6  1  1  0  0  0
  6  7  1  0  0  0
  1 18  1  0  0  0
 18 19  1  0  0  0
 18 23  2  0  0  0
 19 20  2  0  0  0
 20 21  1  0  0  0
 21 22  2  0  0  0
 22 24  1  0  0  0
 22 23  1  0  0  0
 24 25  2  0  0  0
 24 28  1  0  0  0
 25 26  1  0  0  0
 26 30  1  0  0  0
 26 27  2  0  0  0
 30 31  2  0  0  0
 30 32  1  0  0  0
 32 33  1  0  0  0
 27 28  1  0  0  0
 28 29  1  0  0  0
M  END
> <minimizedAffinity>
-9.54112

$$$$
