CHEMBL1162958


 30 33  0  0  0  0  0  0  0  0999 V2000
  -28.2033   -2.1590   -4.9570 C   0  0  0  0  0  0  0  0  0  0  0  0
  -28.0523   -0.7683   -5.1089 C   0  0  0  0  0  0  0  0  0  0  0  0
  -27.9576   -0.1770   -6.3743 C   0  0  0  0  0  0  0  0  0  0  0  0
  -27.9437   -1.0593   -7.4439 C   0  0  0  0  0  0  0  0  0  0  0  0
  -27.8765   -0.7516   -8.7694 O   0  0  0  0  0  0  0  0  0  0  0  0
  -27.8242   -1.9719   -9.3912 C   0  0  0  0  0  0  0  0  0  0  0  0
  -27.8927   -3.0024   -8.5719 N   0  0  0  0  0  0  0  0  0  0  0  0
  -27.9884   -2.4377   -7.3303 C   0  0  0  0  0  0  0  0  0  0  0  0
  -28.1217   -3.0167   -6.0628 C   0  0  0  0  0  0  0  0  0  0  0  0
  -27.7015   -1.9131  -10.7289 N   0  0  0  0  0  0  0  0  0  0  0  0
  -28.5491   -1.6978  -11.2366 H   0  0  0  0  0  0  0  0  0  0  0  0
  -26.5212   -1.6460  -11.4494 C   0  0  0  0  0  0  0  0  0  0  0  0
  -25.2754   -1.4354  -10.8429 C   0  0  0  0  0  0  0  0  0  0  0  0
  -24.1305   -1.1791  -11.6055 C   0  0  0  0  0  0  0  0  0  0  0  0
  -24.2154   -1.1553  -12.9934 C   0  0  0  0  0  0  0  0  0  0  0  0
  -22.8140   -0.8249  -13.9304 Cl  0  0  0  0  0  0  0  0  0  0  0  0
  -25.4332   -1.3989  -13.6213 C   0  0  0  0  0  0  0  0  0  0  0  0
  -26.5744   -1.6512  -12.8530 C   0  0  0  0  0  0  0  0  0  0  0  0
  -28.4029   -2.7730   -3.7354 O   0  0  0  0  0  0  0  0  0  0  0  0
  -29.9145   -6.1213   -3.7243 C   0  0  0  0  0  0  0  0  0  0  0  0
  -28.9102   -5.1675   -3.7049 C   0  0  0  0  0  0  0  0  0  0  0  0
  -29.2849   -3.8290   -3.6521 C   0  0  0  0  0  0  0  0  0  0  0  0
  -30.6264   -3.5002   -3.4849 C   0  0  0  0  0  0  0  0  0  0  0  0
  -31.5568   -4.5271   -3.4628 C   0  0  0  0  0  0  0  0  0  0  0  0
  -31.2412   -5.8333   -3.6056 N   0  0  0  0  0  0  0  0  0  0  0  0
  -29.4486   -9.3630   -5.6122 C   0  0  0  0  0  0  0  0  0  0  0  0
  -29.7440   -8.0076   -5.2385 N   0  0  0  0  0  0  0  0  0  0  0  0
  -29.5452   -7.5548   -3.9532 C   0  0  0  0  0  0  0  0  0  0  0  0
  -29.0827   -8.2463   -3.0522 O   0  0  0  0  0  0  0  0  0  0  0  0
  -30.1142   -7.3415   -5.9113 H   0  0  0  0  0  0  0  0  0  0  0  0
 26 27  1  0  0  0
 27 28  1  0  0  0
 27 30  1  0  0  0
 28 29  2  0  0  0
 28 20  1  0  0  0
 20 21  1  0  0  0
 20 25  2  0  0  0
 21 22  2  0  0  0
 22 19  1  0  0  0
 22 23  1  0  0  0
 19  1  1  0  0  0
  1  2  1  0  0  0
  1  9  2  0  0  0
  2  3  2  0  0  0
  3  4  1  0  0  0
  4  5  1  0  0  0
  4  8  2  0  0  0
  5  6  1  0  0  0
  6 10  1  0  0  0
  6  7  2  0  0  0
 10 12  1  0  0  0
 10 11  1  0  0  0
 12 13  1  0  0  0
 12 18  2  0  0  0
 13 14  2  0  0  0
 14 15  1  0  0  0
 15 16  1  0  0  0
 15 17  2  0  0  0
 17 18  1  0  0  0
  7  8  1  0  0  0
  8  9  1  0  0  0
 23 24  2  0  0  0
 24 25  1  0  0  0
M  END
> <minimizedAffinity>
-10.00872

$$$$
