CHEMBL1080403


 28 31  0  0  0  0  0  0  0  0999 V2000
  -29.5074   -7.0247   -4.8283 C   0  0  0  0  0  0  0  0  0  0  0  0
  -28.3562   -7.2019   -4.0901 C   0  0  0  0  0  0  0  0  0  0  0  0
  -27.5717   -8.1479   -4.6636 O   0  0  0  0  0  0  0  0  0  0  0  0
  -28.2066   -8.5812   -5.7845 C   0  0  0  0  0  0  0  0  0  0  0  0
  -27.7356   -9.5849   -6.5305 N   0  0  0  0  0  0  0  0  0  0  0  0
  -28.5471   -9.8849   -7.5361 C   0  0  0  0  0  0  0  0  0  0  0  0
  -28.2105  -10.9754   -8.3049 N   0  0  0  0  0  0  0  0  0  0  0  0
  -29.6673   -9.2405   -7.8839 N   0  0  0  0  0  0  0  0  0  0  0  0
  -30.1071   -8.2175   -7.1183 C   0  0  0  0  0  0  0  0  0  0  0  0
  -31.2603   -7.5791   -7.5370 N   0  0  0  0  0  0  0  0  0  0  0  0
  -29.3872   -7.8754   -5.9717 C   0  0  0  0  0  0  0  0  0  0  0  0
  -27.2225  -11.1695   -8.2439 H   0  0  0  0  0  0  0  0  0  0  0  0
  -28.6261  -10.9223   -9.2193 H   0  0  0  0  0  0  0  0  0  0  0  0
  -31.7788   -8.1333   -8.2064 H   0  0  0  0  0  0  0  0  0  0  0  0
  -31.7799   -7.0889   -6.8241 H   0  0  0  0  0  0  0  0  0  0  0  0
  -32.0493   -4.4703   -3.4658 C   0  0  0  0  0  0  0  0  0  0  0  0
  -30.7808   -4.9939   -4.0730 C   0  0  0  0  0  0  0  0  0  0  0  0
  -30.6382   -6.3104   -4.3286 C   0  0  0  0  0  0  0  0  0  0  0  0
  -29.7592   -3.9681   -4.3907 C   0  0  0  0  0  0  0  0  0  0  0  0
  -29.0717   -3.3981   -3.3013 C   0  0  0  0  0  0  0  0  0  0  0  0
  -28.1166   -2.4055   -3.4907 C   0  0  0  0  0  0  0  0  0  0  0  0
  -27.9065   -1.8946   -4.7636 C   0  0  0  0  0  0  0  0  0  0  0  0
  -28.5340   -2.4738   -5.8717 C   0  0  0  0  0  0  0  0  0  0  0  0
  -28.2286   -1.9999   -7.1495 C   0  0  0  0  0  0  0  0  0  0  0  0
  -28.4120   -2.8239   -8.2508 C   0  0  0  0  0  0  0  0  0  0  0  0
  -29.1619   -3.9833   -8.1167 C   0  0  0  0  0  0  0  0  0  0  0  0
  -29.7536   -4.2887   -6.8866 C   0  0  0  0  0  0  0  0  0  0  0  0
  -29.3910   -3.5889   -5.7113 C   0  0  0  0  0  0  0  0  0  0  0  0
 16 17  1  0  0  0
 17 18  2  0  0  0
 17 19  1  0  0  0
 18  1  1  0  0  0
  1  2  2  0  0  0
  1 11  1  0  0  0
  2  3  1  0  0  0
  3  4  1  0  0  0
  4  5  1  0  0  0
  4 11  2  0  0  0
  5  6  2  0  0  0
  6  7  1  0  0  0
  6  8  1  0  0  0
  7 12  1  0  0  0
  7 13  1  0  0  0
  8  9  2  0  0  0
  9 10  1  0  0  0
  9 11  1  0  0  0
 10 14  1  0  0  0
 10 15  1  0  0  0
 19 20  1  0  0  0
 19 28  2  0  0  0
 20 21  2  0  0  0
 21 22  1  0  0  0
 22 23  2  0  0  0
 23 24  1  0  0  0
 23 28  1  0  0  0
 24 25  2  0  0  0
 25 26  1  0  0  0
 26 27  2  0  0  0
 27 28  1  0  0  0
M  END
> <minimizedAffinity>
-8.40991

$$$$
