CHEMBL461831


 39 43  0  0  0  0  0  0  0  0999 V2000
  -28.7093   -2.2248   -7.6086 C   0  0  0  0  0  0  0  0  0  0  0  0
  -28.4525   -3.2303   -8.5484 C   0  0  0  0  0  0  0  0  0  0  0  0
  -27.5744   -3.0056   -9.6105 C   0  0  0  0  0  0  0  0  0  0  0  0
  -26.9371   -1.7675   -9.7398 C   0  0  0  0  0  0  0  0  0  0  0  0
  -27.1955   -0.7585   -8.8033 C   0  0  0  0  0  0  0  0  0  0  0  0
  -28.0963   -0.9811   -7.7635 C   0  0  0  0  0  0  0  0  0  0  0  0
  -28.3458    0.0300   -6.9201 F   0  0  0  0  0  0  0  0  0  0  0  0
  -26.0973   -1.4762  -10.9020 C   0  0  0  0  0  0  0  0  0  0  0  0
  -24.8002   -1.2161  -10.7231 C   0  0  0  0  0  0  0  0  0  0  0  0
  -23.9011   -0.9884  -11.7158 N   0  0  0  0  0  0  0  0  0  0  0  0
  -24.2800   -1.0759  -12.9591 C   0  0  0  0  0  0  0  0  0  0  0  0
  -25.6026   -1.3668  -13.2827 N   0  0  0  0  0  0  0  0  0  0  0  0
  -26.0363   -1.5908  -14.6516 C   0  0  0  0  0  0  0  0  0  0  0  0
  -26.5787   -1.5082  -12.3004 C   0  0  0  0  0  0  0  0  0  0  0  0
  -27.7787   -1.6634  -12.5482 O   0  0  0  0  0  0  0  0  0  0  0  0
  -23.3663   -0.8554  -13.9727 N   0  0  0  0  0  0  0  0  0  0  0  0
  -23.5610   -1.3012  -14.8571 H   0  0  0  0  0  0  0  0  0  0  0  0
  -22.5546    0.2963  -14.0471 C   0  0  0  0  0  0  0  0  0  0  0  0
  -23.0791    1.5647  -13.7448 C   0  0  0  0  0  0  0  0  0  0  0  0
  -22.3167    2.7210  -13.9076 C   0  0  0  0  0  0  0  0  0  0  0  0
  -21.0190    2.6134  -14.3816 C   0  0  0  0  0  0  0  0  0  0  0  0
  -20.2900    3.7217  -14.5647 F   0  0  0  0  0  0  0  0  0  0  0  0
  -20.4694    1.3712  -14.6800 C   0  0  0  0  0  0  0  0  0  0  0  0
  -21.2349    0.2116  -14.5103 C   0  0  0  0  0  0  0  0  0  0  0  0
  -29.5888   -2.5869   -6.6180 O   0  0  0  0  0  0  0  0  0  0  0  0
  -29.3615   -7.5617   -5.0885 C   0  0  0  0  0  0  0  0  0  0  0  0
  -28.9406   -6.6992   -4.0602 C   0  0  0  0  0  0  0  0  0  0  0  0
  -28.8980   -5.3192   -4.2022 C   0  0  0  0  0  0  0  0  0  0  0  0
  -28.5625   -4.5866   -3.1265 N   0  0  0  0  0  0  0  0  0  0  0  0
  -28.5796   -3.2437   -3.2403 C   0  0  0  0  0  0  0  0  0  0  0  0
  -28.8877   -2.5813   -4.4076 C   0  0  0  0  0  0  0  0  0  0  0  0
  -29.1950   -3.3409   -5.5338 C   0  0  0  0  0  0  0  0  0  0  0  0
  -29.2421   -4.7525   -5.4440 C   0  0  0  0  0  0  0  0  0  0  0  0
  -29.6268   -5.6273   -6.4847 C   0  0  0  0  0  0  0  0  0  0  0  0
  -29.6752   -7.0163   -6.3317 C   0  0  0  0  0  0  0  0  0  0  0  0
  -28.5605   -9.4453   -3.9130 C   0  0  0  0  0  0  0  0  0  0  0  0
  -29.4500   -8.9164   -4.8987 O   0  0  0  0  0  0  0  0  0  0  0  0
  -30.0439   -7.6288   -7.4936 O   0  0  0  0  0  0  0  0  0  0  0  0
  -29.0574   -8.1231   -8.3780 C   0  0  0  0  0  0  0  0  0  0  0  0
 36 37  1  0  0  0
 37 26  1  0  0  0
 26 27  1  0  0  0
 26 35  2  0  0  0
 27 28  2  0  0  0
 28 29  1  0  0  0
 28 33  1  0  0  0
 29 30  2  0  0  0
 30 31  1  0  0  0
 31 32  2  0  0  0
 32 25  1  0  0  0
 32 33  1  0  0  0
 25  1  1  0  0  0
  1  2  1  0  0  0
  1  6  2  0  0  0
  2  3  2  0  0  0
  3  4  1  0  0  0
  4  8  1  0  0  0
  4  5  2  0  0  0
  8  9  2  0  0  0
  8 14  1  0  0  0
  9 10  1  0  0  0
 10 11  2  0  0  0
 11 16  1  0  0  0
 11 12  1  0  0  0
 16 18  1  0  0  0
 16 17  1  0  0  0
 18 19  1  0  0  0
 18 24  2  0  0  0
 19 20  2  0  0  0
 20 21  1  0  0  0
 21 22  1  0  0  0
 21 23  2  0  0  0
 23 24  1  0  0  0
 12 13  1  0  0  0
 12 14  1  0  0  0
 14 15  2  0  0  0
  5  6  1  0  0  0
  6  7  1  0  0  0
 33 34  2  0  0  0
 34 35  1  0  0  0
 35 38  1  0  0  0
 38 39  1  0  0  0
M  END
> <minimizedAffinity>
-9.62113

$$$$
