CHEMBL3104854


 17 18  0  0  0  0  0  0  0  0999 V2000
  -16.9723   -5.4485  -13.1581 C   0  0  0  0  0  0  0  0  0  0  0  0
  -15.7926   -5.6479  -12.2548 C   0  0  0  0  0  0  0  0  0  0  0  0
  -14.9807   -6.7918  -12.2415 C   0  0  0  0  0  0  0  0  0  0  0  0
  -15.1649   -7.8807  -13.0502 O   0  0  0  0  0  0  0  0  0  0  0  0
  -13.8888   -6.8859  -11.3613 C   0  0  0  0  0  0  0  0  0  0  0  0
  -13.1073   -8.0154  -11.3634 O   0  0  0  0  0  0  0  0  0  0  0  0
  -13.5661   -5.8620  -10.4803 C   0  0  0  0  0  0  0  0  0  0  0  0
  -12.4977   -5.9995   -9.6515 O   0  0  0  0  0  0  0  0  0  0  0  0
  -14.3599   -4.7365  -10.4952 C   0  0  0  0  0  0  0  0  0  0  0  0
  -15.4470   -4.6315  -11.3527 C   0  0  0  0  0  0  0  0  0  0  0  0
  -16.1081   -3.3286  -11.1107 C   0  0  0  0  0  0  0  0  0  0  0  0
  -15.2644   -2.6891  -10.1405 O   0  0  0  0  0  0  0  0  0  0  0  0
  -14.2575   -3.5101   -9.7083 C   0  0  0  0  0  0  0  0  0  0  0  0
  -13.4556   -3.2312   -8.8417 O   0  0  0  0  0  0  0  0  0  0  0  0
  -15.9348   -7.7462  -13.6256 H   0  0  0  0  0  0  0  0  0  0  0  0
  -13.5094   -8.5854  -12.0513 H   0  0  0  0  0  0  0  0  0  0  0  0
  -12.1240   -6.8817   -9.8488 H   0  0  0  0  0  0  0  0  0  0  0  0
  1  2  1  0  0  0
  2  3  1  0  0  0
  2 10  2  0  0  0
  3  4  1  0  0  0
  3  5  2  0  0  0
  4 15  1  0  0  0
  5  6  1  0  0  0
  5  7  1  0  0  0
  6 16  1  0  0  0
  7  8  1  0  0  0
  7  9  2  0  0  0
  8 17  1  0  0  0
  9 10  1  0  0  0
  9 13  1  0  0  0
 10 11  1  0  0  0
 11 12  1  0  0  0
 12 13  1  0  0  0
 13 14  2  0  0  0
M  END
> <minimizedAffinity>
-6.59921

$$$$
