CHEMBL1998611


 19 20  0  0  0  0  0  0  0  0999 V2000
  -28.6116   -3.2354   -7.1175 C   0  0  0  0  0  0  0  0  0  0  0  0
  -29.1553   -4.7882   -7.5572 S   0  0  0  0  0  0  0  0  0  0  0  0
  -29.9954   -5.0366   -6.0736 C   0  0  0  0  0  0  0  0  0  0  0  0
  -30.7326   -6.1831   -5.6833 C   0  0  0  0  0  0  0  0  0  0  0  0
  -30.9117   -7.6977   -6.8170 Br  0  0  0  0  0  0  0  0  0  0  0  0
  -31.3536   -6.2230   -4.4332 C   0  0  0  0  0  0  0  0  0  0  0  0
  -31.2546   -5.1438   -3.5750 C   0  0  0  0  0  0  0  0  0  0  0  0
  -30.5308   -4.0162   -3.9664 C   0  0  0  0  0  0  0  0  0  0  0  0
  -30.4154   -2.6834   -2.8928 Cl  0  0  0  0  0  0  0  0  0  0  0  0
  -29.8736   -3.9197   -5.2273 C   0  0  0  0  0  0  0  0  0  0  0  0
  -29.0747   -2.8909   -5.8620 C   0  0  0  0  0  0  0  0  0  0  0  0
  -28.7953   -1.6969   -5.2959 N   0  0  0  0  0  0  0  0  0  0  0  0
  -29.1515   -1.4142   -4.3864 H   0  0  0  0  0  0  0  0  0  0  0  0
  -28.2379   -0.9859   -5.7771 H   0  0  0  0  0  0  0  0  0  0  0  0
  -27.4071   -3.0422   -9.1954 N   0  0  0  0  0  0  0  0  0  0  0  0
  -27.7730   -2.4516   -8.0145 C   0  0  0  0  0  0  0  0  0  0  0  0
  -27.3826   -1.3074   -7.7852 O   0  0  0  0  0  0  0  0  0  0  0  0
  -26.8380   -2.5117   -9.8388 H   0  0  0  0  0  0  0  0  0  0  0  0
  -27.7274   -3.9656   -9.4500 H   0  0  0  0  0  0  0  0  0  0  0  0
 15 16  1  0  0  0
 15 18  1  0  0  0
 15 19  1  0  0  0
 16 17  2  0  0  0
 16  1  1  0  0  0
  1  2  1  0  0  0
  1 11  2  0  0  0
  2  3  1  0  0  0
  3  4  1  0  0  0
  3 10  2  0  0  0
  4  5  1  0  0  0
  4  6  2  0  0  0
  6  7  1  0  0  0
  7  8  2  0  0  0
  8  9  1  0  0  0
  8 10  1  0  0  0
 10 11  1  0  0  0
 11 12  1  0  0  0
 12 13  1  0  0  0
 12 14  1  0  0  0
M  END
> <minimizedAffinity>
-6.60170

$$$$
