CHEMBL455655


 40 45  0  0  0  0  0  0  0  0999 V2000
  -14.4593    2.9362  -16.9304 C   0  0  0  0  0  0  0  0  0  0  0  0
  -14.7268    1.6360  -16.5135 C   0  0  0  0  0  0  0  0  0  0  0  0
  -16.0107    1.2694  -16.0852 C   0  0  0  0  0  0  0  0  0  0  0  0
  -17.0677    2.1857  -16.0671 C   0  0  0  0  0  0  0  0  0  0  0  0
  -16.8104    3.4816  -16.5249 C   0  0  0  0  0  0  0  0  0  0  0  0
  -15.5171    3.8483  -16.9501 C   0  0  0  0  0  0  0  0  0  0  0  0
  -15.3332    5.1152  -17.3511 F   0  0  0  0  0  0  0  0  0  0  0  0
  -18.3479    1.8601  -15.5453 N   0  0  0  0  0  0  0  0  0  0  0  0
  -19.1606    2.7025  -14.8122 C   0  0  0  0  0  0  0  0  0  0  0  0
  -18.8218    3.7971  -14.3584 O   0  0  0  0  0  0  0  0  0  0  0  0
  -20.4527    2.2557  -14.5943 N   0  0  0  0  0  0  0  0  0  0  0  0
  -21.3890    3.1234  -13.9193 C   0  0  0  0  0  0  0  0  0  0  0  0
  -22.6877    2.3549  -13.9395 C   0  0  0  0  0  0  0  0  0  0  0  0
  -22.2547    0.9778  -14.0083 N   0  0  0  0  0  0  0  0  0  0  0  0
  -20.9309    0.9227  -14.5272 C   0  0  0  0  0  0  0  0  0  0  0  0
  -20.2947   -0.0492  -14.9092 O   0  0  0  0  0  0  0  0  0  0  0  0
  -18.7054    0.9193  -15.7018 H   0  0  0  0  0  0  0  0  0  0  0  0
  -23.0995   -0.1156  -13.7183 C   0  0  0  0  0  0  0  0  0  0  0  0
  -22.8850   -0.9101  -12.5874 C   0  0  0  0  0  0  0  0  0  0  0  0
  -23.7114   -2.0026  -12.3079 C   0  0  0  0  0  0  0  0  0  0  0  0
  -24.7647   -2.3196  -13.1595 C   0  0  0  0  0  0  0  0  0  0  0  0
  -25.0105   -1.5251  -14.2746 C   0  0  0  0  0  0  0  0  0  0  0  0
  -24.1922   -0.4229  -14.5446 C   0  0  0  0  0  0  0  0  0  0  0  0
  -13.1257    3.1642  -17.1907 O   0  0  0  0  0  0  0  0  0  0  0  0
  -12.0328    7.3293  -18.9847 C   0  0  0  0  0  0  0  0  0  0  0  0
  -11.6652    6.6181  -20.1095 C   0  0  0  0  0  0  0  0  0  0  0  0
  -11.9063    5.2233  -19.9843 C   0  0  0  0  0  0  0  0  0  0  0  0
  -11.7649    4.3201  -20.9908 N   0  0  0  0  0  0  0  0  0  0  0  0
  -12.0793    3.0493  -20.6843 C   0  0  0  0  0  0  0  0  0  0  0  0
  -12.5235    2.6087  -19.4538 C   0  0  0  0  0  0  0  0  0  0  0  0
  -12.7173    3.5462  -18.4452 C   0  0  0  0  0  0  0  0  0  0  0  0
  -12.3570    4.8796  -18.7114 C   0  0  0  0  0  0  0  0  0  0  0  0
  -12.3679    6.2636  -17.6884 S   0  0  0  0  0  0  0  0  0  0  0  0
  -13.1245    9.5657  -19.4549 N   0  0  0  0  0  0  0  0  0  0  0  0
  -12.6655   10.8600  -19.4635 C   0  0  0  0  0  0  0  0  0  0  0  0
  -11.4210   10.8057  -18.8903 C   0  0  0  0  0  0  0  0  0  0  0  0
  -11.1002    9.5171  -18.5617 N   0  0  0  0  0  0  0  0  0  0  0  0
  -12.1229    8.7672  -18.9397 C   0  0  0  0  0  0  0  0  0  0  0  0
  -15.3041    8.5262  -18.9744 C   0  0  0  0  0  0  0  0  0  0  0  0
  -14.3985    9.1622  -20.0160 C   0  0  0  0  0  0  0  0  0  0  0  0
 39 40  1  0  0  0
 40 34  1  0  0  0
 34 35  1  0  0  0
 34 38  1  0  0  0
 35 36  2  0  0  0
 36 37  1  0  0  0
 37 38  2  0  0  0
 38 25  1  0  0  0
 25 26  2  0  0  0
 25 33  1  0  0  0
 26 27  1  0  0  0
 27 28  1  0  0  0
 27 32  2  0  0  0
 28 29  2  0  0  0
 29 30  1  0  0  0
 30 31  2  0  0  0
 31 24  1  0  0  0
 31 32  1  0  0  0
 24  1  1  0  0  0
  1  2  1  0  0  0
  1  6  2  0  0  0
  2  3  2  0  0  0
  3  4  1  0  0  0
  4  8  1  0  0  0
  4  5  2  0  0  0
  8  9  1  0  0  0
  8 17  1  0  0  0
  9 10  2  0  0  0
  9 11  1  0  0  0
 11 12  1  0  0  0
 11 15  1  0  0  0
 12 13  1  0  0  0
 13 14  1  0  0  0
 14 18  1  0  0  0
 14 15  1  0  0  0
 18 19  1  0  0  0
 18 23  2  0  0  0
 19 20  2  0  0  0
 20 21  1  0  0  0
 21 22  2  0  0  0
 22 23  1  0  0  0
 15 16  2  0  0  0
  5  6  1  0  0  0
  6  7  1  0  0  0
 32 33  1  0  0  0
M  END
> <minimizedAffinity>
-8.52715

$$$$
