CHEMBL233825


 28 30  0  0  0  0  0  0  0  0999 V2000
  -27.7032   -3.7324   -8.4561 O   0  0  0  0  0  0  0  0  0  0  0  0
  -27.8554   -2.5791   -8.0637 C   0  0  0  0  0  0  0  0  0  0  0  0
  -27.6035   -1.4480   -8.8307 N   0  0  0  0  0  0  0  0  0  0  0  0
  -27.8075   -0.5694   -8.3547 H   0  0  0  0  0  0  0  0  0  0  0  0
  -27.0428   -1.4055  -10.1268 C   0  0  0  0  0  0  0  0  0  0  0  0
  -27.8131   -1.3014  -11.2866 C   0  0  0  0  0  0  0  0  0  0  0  0
  -27.2265   -1.3342  -12.5532 C   0  0  0  0  0  0  0  0  0  0  0  0
  -25.8409   -1.4680  -12.7049 C   0  0  0  0  0  0  0  0  0  0  0  0
  -25.0589   -1.5279  -11.5461 C   0  0  0  0  0  0  0  0  0  0  0  0
  -23.3374   -1.6461  -11.6272 Cl  0  0  0  0  0  0  0  0  0  0  0  0
  -25.6513   -1.4997  -10.2689 C   0  0  0  0  0  0  0  0  0  0  0  0
  -25.2563   -1.5611  -14.0895 C   0  0  0  0  0  0  0  0  0  0  0  0
  -24.3479   -0.5735  -14.3480 F   0  0  0  0  0  0  0  0  0  0  0  0
  -24.5923   -2.7262  -14.3176 F   0  0  0  0  0  0  0  0  0  0  0  0
  -26.1913   -1.4471  -15.0721 F   0  0  0  0  0  0  0  0  0  0  0  0
  -28.3093   -2.2803   -6.7095 C   0  0  0  0  0  0  0  0  0  0  0  0
  -27.7203   -1.3535   -5.9590 N   0  0  0  0  0  0  0  0  0  0  0  0
  -28.3605   -1.3797   -4.7506 C   0  0  0  0  0  0  0  0  0  0  0  0
  -29.3489   -2.3328   -4.7482 C   0  0  0  0  0  0  0  0  0  0  0  0
  -29.3355   -2.8859   -6.0053 N   0  0  0  0  0  0  0  0  0  0  0  0
  -30.2127   -3.9739   -6.4227 C   0  0  0  0  0  0  0  0  0  0  0  0
  -29.7836   -5.3398   -5.8675 C   0  0  0  0  0  0  0  0  0  0  0  0
  -29.8489   -6.5397   -6.7905 C   0  0  0  0  0  0  0  0  0  0  0  0
  -28.8247   -6.9362   -7.6529 C   0  0  0  0  0  0  0  0  0  0  0  0
  -29.0113   -8.0721   -8.4358 C   0  0  0  0  0  0  0  0  0  0  0  0
  -30.1262   -8.8301   -8.4198 N   0  0  0  0  0  0  0  0  0  0  0  0
  -31.1077   -8.4360   -7.5833 C   0  0  0  0  0  0  0  0  0  0  0  0
  -31.0146   -7.3193   -6.7652 C   0  0  0  0  0  0  0  0  0  0  0  0
  1  2  2  0  0  0
  2  3  1  0  0  0
  2 16  1  0  0  0
  3  5  1  0  0  0
  3  4  1  0  0  0
  5  6  1  0  0  0
  5 11  2  0  0  0
  6  7  2  0  0  0
  7  8  1  0  0  0
  8 12  1  0  0  0
  8  9  2  0  0  0
 12 13  1  0  0  0
 12 14  1  0  0  0
 12 15  1  0  0  0
  9 10  1  0  0  0
  9 11  1  0  0  0
 16 17  2  0  0  0
 16 20  1  0  0  0
 17 18  1  0  0  0
 18 19  2  0  0  0
 19 20  1  0  0  0
 20 21  1  0  0  0
 21 22  1  0  0  0
 22 23  1  0  0  0
 23 24  1  0  0  0
 23 28  2  0  0  0
 24 25  2  0  0  0
 25 26  1  0  0  0
 26 27  2  0  0  0
 27 28  1  0  0  0
M  END
> <minimizedAffinity>
-8.50595

$$$$
