CHEMBL2088095


 32 35  0  0  0  0  0  0  0  0999 V2000
  -26.9999   -1.5585  -10.1058 C   0  0  0  0  0  0  0  0  0  0  0  0
  -27.9462   -1.6547  -11.0407 N   0  0  0  0  0  0  0  0  0  0  0  0
  -27.5303   -1.7129  -12.3231 C   0  0  0  0  0  0  0  0  0  0  0  0
  -26.2170   -1.5993  -12.7120 C   0  0  0  0  0  0  0  0  0  0  0  0
  -25.7460   -1.6854  -14.5351 Br  0  0  0  0  0  0  0  0  0  0  0  0
  -25.2990   -1.4551  -11.6882 C   0  0  0  0  0  0  0  0  0  0  0  0
  -25.7019   -1.4671  -10.3945 N   0  0  0  0  0  0  0  0  0  0  0  0
  -27.4234   -1.5169   -8.7858 N   0  0  0  0  0  0  0  0  0  0  0  0
  -26.5877   -1.3707   -8.2289 H   0  0  0  0  0  0  0  0  0  0  0  0
  -28.1999   -2.6689   -8.3439 C   0  0  0  0  0  0  0  0  0  0  0  0
  -28.5010   -4.0004   -3.4194 C   0  0  0  0  0  0  0  0  0  0  0  0
  -28.1901   -3.4069   -4.7384 C   0  0  0  0  0  0  0  0  0  0  0  0
  -28.6722   -3.7915   -6.0077 C   0  0  0  0  0  0  0  0  0  0  0  0
  -28.1026   -2.8907   -6.8756 C   0  0  0  0  0  0  0  0  0  0  0  0
  -27.3082   -2.0374   -6.1753 O   0  0  0  0  0  0  0  0  0  0  0  0
  -27.3610   -2.3593   -4.8294 N   0  0  0  0  0  0  0  0  0  0  0  0
  -23.9130   -1.3425  -11.9556 N   0  0  0  0  0  0  0  0  0  0  0  0
  -23.4792   -2.2592  -12.0285 H   0  0  0  0  0  0  0  0  0  0  0  0
  -23.3623   -0.3896  -12.7414 C   0  0  0  0  0  0  0  0  0  0  0  0
  -22.3629   -0.6728  -13.6966 C   0  0  0  0  0  0  0  0  0  0  0  0
  -21.9654    0.5432  -14.1936 C   0  0  0  0  0  0  0  0  0  0  0  0
  -22.7919    1.4565  -13.5965 N   0  0  0  0  0  0  0  0  0  0  0  0
  -23.6796    0.9042  -12.7336 N   0  0  0  0  0  0  0  0  0  0  0  0
  -22.8009    2.4624  -13.7119 H   0  0  0  0  0  0  0  0  0  0  0  0
  -20.8543    0.9017  -15.1258 C   0  0  0  0  0  0  0  0  0  0  0  0
  -20.1128    2.1613  -14.6624 C   0  0  0  0  0  0  0  0  0  0  0  0
  -18.6856    2.2020  -15.1365 C   0  0  0  0  0  0  0  0  0  0  0  0
  -17.8892    1.0494  -15.0818 C   0  0  0  0  0  0  0  0  0  0  0  0
  -16.5700    1.0802  -15.5399 C   0  0  0  0  0  0  0  0  0  0  0  0
  -16.0414    2.2627  -16.0519 C   0  0  0  0  0  0  0  0  0  0  0  0
  -16.8249    3.4160  -16.1019 C   0  0  0  0  0  0  0  0  0  0  0  0
  -18.1417    3.3864  -15.6453 C   0  0  0  0  0  0  0  0  0  0  0  0
 11 12  1  0  0  0
 12 13  1  0  0  0
 12 16  2  0  0  0
 13 14  2  0  0  0
 14 10  1  0  0  0
 14 15  1  0  0  0
 10  8  1  0  0  0
  8  1  1  0  0  0
  8  9  1  0  0  0
  1  2  1  0  0  0
  1  7  2  0  0  0
  2  3  2  0  0  0
  3  4  1  0  0  0
  4  5  1  0  0  0
  4  6  2  0  0  0
  6 17  1  0  0  0
  6  7  1  0  0  0
 17 19  1  0  0  0
 17 18  1  0  0  0
 19 20  1  0  0  0
 19 23  2  0  0  0
 20 21  2  0  0  0
 21 25  1  0  0  0
 21 22  1  0  0  0
 25 26  1  0  0  0
 26 27  1  0  0  0
 27 28  1  0  0  0
 27 32  2  0  0  0
 28 29  2  0  0  0
 29 30  1  0  0  0
 30 31  2  0  0  0
 31 32  1  0  0  0
 22 23  1  0  0  0
 22 24  1  0  0  0
 15 16  1  0  0  0
M  END
> <minimizedAffinity>
-9.81301

$$$$
