CHEMBL182283


 23 26  0  0  0  0  0  0  0  0999 V2000
  -17.7270    2.5629  -15.7620 C   0  0  0  0  0  0  0  0  0  0  0  0
  -17.0490    3.7026  -16.1577 C   0  0  0  0  0  0  0  0  0  0  0  0
  -15.7541    3.2894  -16.5724 C   0  0  0  0  0  0  0  0  0  0  0  0
  -14.5924    3.8736  -17.0876 C   0  0  0  0  0  0  0  0  0  0  0  0
  -13.5489    3.0698  -17.3764 N   0  0  0  0  0  0  0  0  0  0  0  0
  -13.6509    1.7489  -17.1539 C   0  0  0  0  0  0  0  0  0  0  0  0
  -14.7011    1.0853  -16.6599 N   0  0  0  0  0  0  0  0  0  0  0  0
  -15.7180    1.9124  -16.3927 C   0  0  0  0  0  0  0  0  0  0  0  0
  -16.9071    1.4792  -15.8939 O   0  0  0  0  0  0  0  0  0  0  0  0
  -23.0038    1.4891  -13.6462 C   0  0  0  0  0  0  0  0  0  0  0  0
  -21.6552    1.7563  -14.2445 C   0  0  0  0  0  0  0  0  0  0  0  0
  -20.8360    0.7129  -14.6826 C   0  0  0  0  0  0  0  0  0  0  0  0
  -19.5668    0.9812  -15.2086 C   0  0  0  0  0  0  0  0  0  0  0  0
  -19.0864    2.2959  -15.2991 C   0  0  0  0  0  0  0  0  0  0  0  0
  -19.9293    3.3374  -14.8885 C   0  0  0  0  0  0  0  0  0  0  0  0
  -21.1979    3.0720  -14.3647 C   0  0  0  0  0  0  0  0  0  0  0  0
  -14.5190    5.2587  -17.2818 N   0  0  0  0  0  0  0  0  0  0  0  0
  -14.5153    5.8715  -18.5190 C   0  0  0  0  0  0  0  0  0  0  0  0
  -14.5924    5.3374  -19.6156 O   0  0  0  0  0  0  0  0  0  0  0  0
  -14.4288    5.8358  -16.4603 H   0  0  0  0  0  0  0  0  0  0  0  0
  -14.3491    7.3565  -18.4365 C   0  0  0  0  0  0  0  0  0  0  0  0
  -15.3782    8.2938  -19.0313 C   0  0  0  0  0  0  0  0  0  0  0  0
  -14.0501    8.1200  -19.7070 C   0  0  0  0  0  0  0  0  0  0  0  0
 10 11  1  0  0  0
 11 12  1  0  0  0
 11 16  2  0  0  0
 12 13  2  0  0  0
 13 14  1  0  0  0
 14  1  1  0  0  0
 14 15  2  0  0  0
  1  2  2  0  0  0
  1  9  1  0  0  0
  2  3  1  0  0  0
  3  4  1  0  0  0
  3  8  2  0  0  0
  4 17  1  0  0  0
  4  5  2  0  0  0
 17 18  1  0  0  0
 17 20  1  0  0  0
 18 19  2  0  0  0
 18 21  1  0  0  0
 21 22  1  0  0  0
 21 23  1  0  0  0
 22 23  1  0  0  0
  5  6  1  0  0  0
  6  7  2  0  0  0
  7  8  1  0  0  0
  8  9  1  0  0  0
 15 16  1  0  0  0
M  END
> <minimizedAffinity>
-8.35897

$$$$
