CHEMBL3628818


 24 27  0  0  0  0  0  0  0  0999 V2000
  -29.0699   -6.3494   -6.6867 C   0  0  0  0  0  0  0  0  0  0  0  0
  -28.7504   -6.9119   -5.5068 N   0  0  0  0  0  0  0  0  0  0  0  0
  -28.3785   -6.0933   -4.5141 C   0  0  0  0  0  0  0  0  0  0  0  0
  -28.3572   -4.7271   -4.6497 C   0  0  0  0  0  0  0  0  0  0  0  0
  -28.5472   -4.2406   -5.9316 C   0  0  0  0  0  0  0  0  0  0  0  0
  -28.8928   -5.0457   -6.9672 N   0  0  0  0  0  0  0  0  0  0  0  0
  -28.6529   -2.7774   -6.1107 C   0  0  0  0  0  0  0  0  0  0  0  0
  -27.8244   -2.0429   -6.9658 C   0  0  0  0  0  0  0  0  0  0  0  0
  -27.9221   -0.6424   -7.0050 C   0  0  0  0  0  0  0  0  0  0  0  0
  -28.9118    0.0187   -6.2828 C   0  0  0  0  0  0  0  0  0  0  0  0
  -29.0491    1.7320   -6.3640 Cl  0  0  0  0  0  0  0  0  0  0  0  0
  -29.7280   -0.6833   -5.3999 C   0  0  0  0  0  0  0  0  0  0  0  0
  -29.4973   -2.0502   -5.2366 C   0  0  0  0  0  0  0  0  0  0  0  0
  -29.9168   -2.7802   -3.6337 S   0  0  0  0  0  0  0  0  0  0  0  0
  -28.3620   -3.7764   -3.5047 C   0  0  0  0  0  0  0  0  0  0  0  0
  -29.7792   -7.2090   -7.5332 N   0  0  0  0  0  0  0  0  0  0  0  0
  -30.7339   -6.8939   -7.6123 H   0  0  0  0  0  0  0  0  0  0  0  0
  -28.2759  -12.0707  -10.5796 Cl  0  0  0  0  0  0  0  0  0  0  0  0
  -28.6985  -10.6797   -9.6618 C   0  0  0  0  0  0  0  0  0  0  0  0
  -29.9821  -10.5615   -9.1400 C   0  0  0  0  0  0  0  0  0  0  0  0
  -30.3354   -9.4247   -8.4189 C   0  0  0  0  0  0  0  0  0  0  0  0
  -29.4310   -8.3694   -8.2283 C   0  0  0  0  0  0  0  0  0  0  0  0
  -28.1271   -8.5257   -8.7337 C   0  0  0  0  0  0  0  0  0  0  0  0
  -27.7613   -9.6714   -9.4479 C   0  0  0  0  0  0  0  0  0  0  0  0
 18 19  1  0  0  0
 19 20  1  0  0  0
 19 24  2  0  0  0
 20 21  2  0  0  0
 21 22  1  0  0  0
 22 16  1  0  0  0
 22 23  2  0  0  0
 16  1  1  0  0  0
 16 17  1  0  0  0
  1  2  1  0  0  0
  1  6  2  0  0  0
  2  3  2  0  0  0
  3  4  1  0  0  0
  4  5  2  0  0  0
  4 15  1  0  0  0
  5  6  1  0  0  0
  5  7  1  0  0  0
  7  8  1  0  0  0
  7 13  2  0  0  0
  8  9  2  0  0  0
  9 10  1  0  0  0
 10 11  1  0  0  0
 10 12  2  0  0  0
 12 13  1  0  0  0
 13 14  1  0  0  0
 14 15  1  0  0  0
 23 24  1  0  0  0
M  END
> <minimizedAffinity>
-8.37186

$$$$
