CHEMBL1242033


 34 37  0  0  0  0  0  0  0  0999 V2000
  -28.8646   -6.0530   -7.5648 C   0  0  0  0  0  0  0  0  0  0  0  0
  -29.3060   -5.8005   -6.2627 C   0  0  0  0  0  0  0  0  0  0  0  0
  -29.2408   -4.5355   -5.7090 C   0  0  0  0  0  0  0  0  0  0  0  0
  -28.7463   -3.4598   -6.4068 C   0  0  0  0  0  0  0  0  0  0  0  0
  -28.7678   -2.3316   -5.6937 N   0  0  0  0  0  0  0  0  0  0  0  0
  -28.3318   -1.2079   -6.2615 C   0  0  0  0  0  0  0  0  0  0  0  0
  -27.8430   -1.1681   -7.5425 C   0  0  0  0  0  0  0  0  0  0  0  0
  -27.7676   -2.3648   -8.3027 C   0  0  0  0  0  0  0  0  0  0  0  0
  -28.2688   -3.6034   -7.7381 C   0  0  0  0  0  0  0  0  0  0  0  0
  -28.3517   -4.9513   -8.3065 C   0  0  0  0  0  0  0  0  0  0  0  0
  -28.5072   -9.1506   -9.2488 N   0  0  0  0  0  0  0  0  0  0  0  0
  -28.0002   -7.9891   -8.7850 N   0  0  0  0  0  0  0  0  0  0  0  0
  -28.9542   -7.4859   -7.9581 C   0  0  0  0  0  0  0  0  0  0  0  0
  -30.0206   -8.4258   -7.8104 C   0  0  0  0  0  0  0  0  0  0  0  0
  -31.2651   -8.5212   -7.1749 C   0  0  0  0  0  0  0  0  0  0  0  0
  -31.8153   -7.5423   -6.3559 N   0  0  0  0  0  0  0  0  0  0  0  0
  -32.0260   -9.6180   -7.3846 N   0  0  0  0  0  0  0  0  0  0  0  0
  -31.5749  -10.5729   -8.2181 C   0  0  0  0  0  0  0  0  0  0  0  0
  -30.4258  -10.5815   -8.9048 N   0  0  0  0  0  0  0  0  0  0  0  0
  -29.6929   -9.4817   -8.6548 C   0  0  0  0  0  0  0  0  0  0  0  0
  -31.5837   -6.5973   -6.6264 H   0  0  0  0  0  0  0  0  0  0  0  0
  -32.8043   -7.7233   -6.2323 H   0  0  0  0  0  0  0  0  0  0  0  0
  -27.1124  -11.1235   -9.8952 C   0  0  0  0  0  0  0  0  0  0  0  0
  -27.8706   -9.8718  -10.3533 C   0  0  0  0  0  0  0  0  0  0  0  0
  -28.8513  -10.2236  -11.4703 C   0  0  0  0  0  0  0  0  0  0  0  0
  -27.1368   -2.2865   -9.5836 N   0  0  0  0  0  0  0  0  0  0  0  0
  -27.0049   -1.9734  -10.8956 C   0  0  0  0  0  0  0  0  0  0  0  0
  -27.8160   -1.2261  -11.4237 O   0  0  0  0  0  0  0  0  0  0  0  0
  -27.7843   -1.5128   -9.7791 H   0  0  0  0  0  0  0  0  0  0  0  0
  -25.9035   -2.4901  -11.4793 O   0  0  0  0  0  0  0  0  0  0  0  0
  -25.0613   -1.6512  -12.3272 C   0  0  0  0  0  0  0  0  0  0  0  0
  -24.9233   -0.2184  -11.7878 C   0  0  0  0  0  0  0  0  0  0  0  0
  -23.6807   -2.3221  -12.2780 C   0  0  0  0  0  0  0  0  0  0  0  0
  -25.5397   -1.6370  -13.7859 C   0  0  0  0  0  0  0  0  0  0  0  0
 23 24  1  0  0  0
 24 25  1  0  0  0
 24 11  1  0  0  0
 11 12  1  0  0  0
 11 20  1  0  0  0
 12 13  2  0  0  0
 13  1  1  0  0  0
 13 14  1  0  0  0
  1  2  1  0  0  0
  1 10  2  0  0  0
  2  3  2  0  0  0
  3  4  1  0  0  0
  4  5  1  0  0  0
  4  9  2  0  0  0
  5  6  2  0  0  0
  6  7  1  0  0  0
  7  8  2  0  0  0
  8 26  1  0  0  0
  8  9  1  0  0  0
 26 27  1  0  0  0
 26 29  1  0  0  0
 27 28  2  0  0  0
 27 30  1  0  0  0
 30 31  1  0  0  0
 31 32  1  0  0  0
 31 33  1  0  0  0
 31 34  1  0  0  0
  9 10  1  0  0  0
 14 15  1  0  0  0
 14 20  2  0  0  0
 15 16  1  0  0  0
 15 17  2  0  0  0
 16 21  1  0  0  0
 16 22  1  0  0  0
 17 18  1  0  0  0
 18 19  2  0  0  0
 19 20  1  0  0  0
M  END
> <minimizedAffinity>
-10.24402

$$$$
