CHEMBL1083644


 40 44  0  0  0  0  0  0  0  0999 V2000
  -18.2056    2.3073  -15.3262 C   0  0  0  0  0  0  0  0  0  0  0  0
  -17.8728    3.7396  -15.6340 C   0  0  0  0  0  0  0  0  0  0  0  0
  -16.7150    4.2089  -15.9769 N   0  0  0  0  0  0  0  0  0  0  0  0
  -15.6953    3.3033  -16.0616 C   0  0  0  0  0  0  0  0  0  0  0  0
  -14.3535    3.4173  -16.4033 C   0  0  0  0  0  0  0  0  0  0  0  0
  -13.8532    2.0992  -16.3188 C   0  0  0  0  0  0  0  0  0  0  0  0
  -14.7671    1.2040  -15.9551 N   0  0  0  0  0  0  0  0  0  0  0  0
  -15.9015    1.9425  -15.7750 N   0  0  0  0  0  0  0  0  0  0  0  0
  -17.1756    1.4397  -15.3888 C   0  0  0  0  0  0  0  0  0  0  0  0
  -17.2589    0.0712  -15.1279 N   0  0  0  0  0  0  0  0  0  0  0  0
  -16.4710   -0.4342  -15.5433 H   0  0  0  0  0  0  0  0  0  0  0  0
  -18.1647   -0.3396  -15.3273 H   0  0  0  0  0  0  0  0  0  0  0  0
  -22.1258    1.1822  -14.0486 C   0  0  0  0  0  0  0  0  0  0  0  0
  -21.3053    0.2643  -14.7078 C   0  0  0  0  0  0  0  0  0  0  0  0
  -20.0392    0.6424  -15.1637 C   0  0  0  0  0  0  0  0  0  0  0  0
  -19.5776    1.9446  -14.9603 C   0  0  0  0  0  0  0  0  0  0  0  0
  -20.4238    2.8857  -14.3654 C   0  0  0  0  0  0  0  0  0  0  0  0
  -21.6964    2.5081  -13.9247 C   0  0  0  0  0  0  0  0  0  0  0  0
  -23.6210   -0.0147  -12.4626 C   0  0  0  0  0  0  0  0  0  0  0  0
  -22.8151   -0.5899  -11.7489 O   0  0  0  0  0  0  0  0  0  0  0  0
  -23.3714    0.8461  -13.4951 N   0  0  0  0  0  0  0  0  0  0  0  0
  -24.2038    1.2553  -13.8947 H   0  0  0  0  0  0  0  0  0  0  0  0
  -24.9651   -0.2063  -12.3906 O   0  0  0  0  0  0  0  0  0  0  0  0
  -25.3986   -1.4328  -12.9897 C   0  0  0  0  0  0  0  0  0  0  0  0
  -27.2306   -1.1214  -11.2638 C   0  0  0  0  0  0  0  0  0  0  0  0
  -26.7102   -1.9769  -12.4178 C   0  0  0  0  0  0  0  0  0  0  0  0
  -27.7490   -2.0291  -13.5420 C   0  0  0  0  0  0  0  0  0  0  0  0
  -13.6511    4.6323  -16.7901 C   0  0  0  0  0  0  0  0  0  0  0  0
  -12.5512    5.0671  -16.0431 C   0  0  0  0  0  0  0  0  0  0  0  0
  -11.8219    6.1797  -16.4532 C   0  0  0  0  0  0  0  0  0  0  0  0
  -12.1849    6.8609  -17.6169 C   0  0  0  0  0  0  0  0  0  0  0  0
  -13.2839    6.4665  -18.3957 C   0  0  0  0  0  0  0  0  0  0  0  0
  -14.0070    5.3475  -17.9461 C   0  0  0  0  0  0  0  0  0  0  0  0
  -13.6213    7.1425  -19.5519 N   0  0  0  0  0  0  0  0  0  0  0  0
  -12.7161    8.0954  -20.2105 C   0  0  0  0  0  0  0  0  0  0  0  0
  -13.3843    9.4803  -20.3533 C   0  0  0  0  0  0  0  0  0  0  0  0
  -14.7041    9.4297  -21.0220 N   0  0  0  0  0  0  0  0  0  0  0  0
  -15.5716    8.4994  -20.2672 C   0  0  0  0  0  0  0  0  0  0  0  0
  -14.9817    7.0768  -20.1063 C   0  0  0  0  0  0  0  0  0  0  0  0
  -14.5652    9.0375  -21.9536 H   0  0  0  0  0  0  0  0  0  0  0  0
 25 26  1  0  0  0
 26 27  1  0  0  0
 26 24  1  0  0  0
 24 23  1  0  0  0
 23 19  1  0  0  0
 19 20  2  0  0  0
 19 21  1  0  0  0
 21 13  1  0  0  0
 21 22  1  0  0  0
 13 14  1  0  0  0
 13 18  2  0  0  0
 14 15  2  0  0  0
 15 16  1  0  0  0
 16  1  1  0  0  0
 16 17  2  0  0  0
  1  2  1  0  0  0
  1  9  2  0  0  0
  2  3  2  0  0  0
  3  4  1  0  0  0
  4  5  2  0  0  0
  4  8  1  0  0  0
  5 28  1  0  0  0
  5  6  1  0  0  0
 28 29  1  0  0  0
 28 33  2  0  0  0
 29 30  2  0  0  0
 30 31  1  0  0  0
 31 32  2  0  0  0
 32 34  1  0  0  0
 32 33  1  0  0  0
 34 35  1  0  0  0
 34 39  1  0  0  0
 35 36  1  0  0  0
 36 37  1  0  0  0
 37 38  1  0  0  0
 37 40  1  0  0  0
 38 39  1  0  0  0
  6  7  2  0  0  0
  7  8  1  0  0  0
  8  9  1  0  0  0
  9 10  1  0  0  0
 10 11  1  0  0  0
 10 12  1  0  0  0
 17 18  1  0  0  0
M  END
> <minimizedAffinity>
-9.54896

$$$$
