CHEMBL401896


 35 40  0  0  0  0  0  0  0  0999 V2000
  -31.1773  -10.4258   -7.3172 C   0  0  0  0  0  0  0  0  0  0  0  0
  -30.6788  -10.1882   -8.5881 C   0  0  0  0  0  0  0  0  0  0  0  0
  -29.3056  -10.2981   -8.8483 C   0  0  0  0  0  0  0  0  0  0  0  0
  -28.4105  -10.6895   -7.8239 C   0  0  0  0  0  0  0  0  0  0  0  0
  -28.9083  -10.9138   -6.5126 C   0  0  0  0  0  0  0  0  0  0  0  0
  -30.3008  -10.7711   -6.2781 C   0  0  0  0  0  0  0  0  0  0  0  0
  -27.7577  -11.2554   -5.7941 C   0  0  0  0  0  0  0  0  0  0  0  0
  -27.5215  -11.4874   -4.4206 C   0  0  0  0  0  0  0  0  0  0  0  0
  -25.8492  -11.7321   -3.8439 C   0  0  0  0  0  0  0  0  0  0  0  0
  -24.1372  -11.7546   -4.5419 C   0  0  0  0  0  0  0  0  0  0  0  0
  -25.5291  -11.4872   -5.6260 C   0  0  0  0  0  0  0  0  0  0  0  0
  -26.6227  -11.2668   -6.5198 C   0  0  0  0  0  0  0  0  0  0  0  0
  -27.0103  -10.9570   -7.8315 N   0  0  0  0  0  0  0  0  0  0  0  0
  -24.4272  -11.0809   -6.2216 C   0  0  0  0  0  0  0  0  0  0  0  0
  -24.1881  -10.8952   -7.5397 C   0  0  0  0  0  0  0  0  0  0  0  0
  -23.0324  -11.6381   -7.4481 C   0  0  0  0  0  0  0  0  0  0  0  0
  -22.6058  -12.0573   -8.6168 N   0  0  0  0  0  0  0  0  0  0  0  0
  -21.3284  -11.9927   -8.4569 N   0  0  0  0  0  0  0  0  0  0  0  0
  -20.5633  -12.2260   -9.7576 C   0  0  0  0  0  0  0  0  0  0  0  0
  -21.2992  -11.4296   -6.8603 C   0  0  0  0  0  0  0  0  0  0  0  0
  -22.6246  -11.9379   -5.9273 C   0  0  0  0  0  0  0  0  0  0  0  0
  -26.5658  -11.9027   -2.3215 C   0  0  0  0  0  0  0  0  0  0  0  0
  -26.2004  -12.4446   -1.2754 O   0  0  0  0  0  0  0  0  0  0  0  0
  -28.0153  -11.4792   -2.2730 N   0  0  0  0  0  0  0  0  0  0  0  0
  -28.7151  -11.5031   -3.5012 C   0  0  0  0  0  0  0  0  0  0  0  0
  -28.6200  -11.5466   -1.4431 H   0  0  0  0  0  0  0  0  0  0  0  0
  -33.3646  -11.4243   -7.0613 N   0  0  0  0  0  0  0  0  0  0  0  0
  -32.6478  -10.3337   -7.0626 C   0  0  0  0  0  0  0  0  0  0  0  0
  -33.2014   -8.9358   -6.8351 C   0  0  0  0  0  0  0  0  0  0  0  0
  -34.7116  -11.1475   -6.7793 O   0  0  0  0  0  0  0  0  0  0  0  0
  -35.8109  -12.4629   -5.1354 C   0  0  0  0  0  0  0  0  0  0  0  0
  -35.4434  -12.3612   -6.6055 C   0  0  0  0  0  0  0  0  0  0  0  0
  -26.1074  -10.8976   -9.0247 C   0  0  0  0  0  0  0  0  0  0  0  0
  -25.8021  -12.3128   -9.7850 C   0  0  0  0  0  0  0  0  0  0  0  0
  -26.3486   -9.9380  -10.1331 C   0  0  0  0  0  0  0  0  0  0  0  0
 31 32  1  0  0  0
 32 30  1  0  0  0
 30 27  1  0  0  0
 27 28  2  0  0  0
 28 29  1  0  0  0
 28  1  1  0  0  0
  1  2  1  0  0  0
  1  6  2  0  0  0
  2  3  2  0  0  0
  3  4  1  0  0  0
  4  5  2  0  0  0
  4 13  1  0  0  0
  5  6  1  0  0  0
  5  7  1  0  0  0
  7  8  1  0  0  0
  7 12  2  0  0  0
  8  9  2  0  0  0
  8 25  1  0  0  0
  9 10  1  0  0  0
  9 22  1  0  0  0
 10 11  2  0  0  0
 10 21  1  0  0  0
 11 12  1  0  0  0
 11 14  1  0  0  0
 12 13  1  0  0  0
 13 33  1  0  0  0
 33 34  1  0  0  0
 33 35  1  0  0  0
 14 15  1  0  0  0
 15 16  1  0  0  0
 16 17  2  0  0  0
 16 21  1  0  0  0
 17 18  1  0  0  0
 18 19  1  0  0  0
 18 20  1  0  0  0
 20 21  2  0  0  0
 22 23  2  0  0  0
 22 24  1  0  0  0
 24 25  1  0  0  0
 24 26  1  0  0  0
M  END
> <minimizedAffinity>
-0.35358

$$$$
