CHEMBL4788820


 35 39  0  0  0  0  0  0  0  0999 V2000
  -14.9264    1.0136  -16.0474 C   0  0  0  0  0  0  0  0  0  0  0  0
  -14.4061    2.0517  -16.7141 N   0  0  0  0  0  0  0  0  0  0  0  0
  -15.1994    3.1264  -16.8406 C   0  0  0  0  0  0  0  0  0  0  0  0
  -16.4944    3.1586  -16.3852 C   0  0  0  0  0  0  0  0  0  0  0  0
  -16.9632    2.0406  -15.7382 C   0  0  0  0  0  0  0  0  0  0  0  0
  -16.1726    0.9711  -15.5561 N   0  0  0  0  0  0  0  0  0  0  0  0
  -13.2698   -1.9604  -15.0598 O   0  0  0  0  0  0  0  0  0  0  0  0
  -14.1631   -1.1203  -15.0355 C   0  0  0  0  0  0  0  0  0  0  0  0
  -15.2612   -1.1410  -14.2174 N   0  0  0  0  0  0  0  0  0  0  0  0
  -14.0567   -0.0445  -15.8669 N   0  0  0  0  0  0  0  0  0  0  0  0
  -15.8935   -0.3580  -14.3530 H   0  0  0  0  0  0  0  0  0  0  0  0
  -13.2105    0.0049  -16.4121 H   0  0  0  0  0  0  0  0  0  0  0  0
  -15.6179   -2.0702  -13.2244 C   0  0  0  0  0  0  0  0  0  0  0  0
  -15.5729   -1.8149  -11.8565 C   0  0  0  0  0  0  0  0  0  0  0  0
  -15.9331   -2.8111  -10.9406 C   0  0  0  0  0  0  0  0  0  0  0  0
  -16.3381   -4.0683  -11.3847 C   0  0  0  0  0  0  0  0  0  0  0  0
  -16.3982   -4.3275  -12.7489 C   0  0  0  0  0  0  0  0  0  0  0  0
  -16.0559   -3.3293  -13.6628 C   0  0  0  0  0  0  0  0  0  0  0  0
  -18.2933    2.0021  -15.3263 N   0  0  0  0  0  0  0  0  0  0  0  0
  -18.8506    0.6907  -14.9938 C   0  0  0  0  0  0  0  0  0  0  0  0
  -20.3735    0.7720  -15.1191 C   0  0  0  0  0  0  0  0  0  0  0  0
  -20.9512    1.9136  -14.2794 C   0  0  0  0  0  0  0  0  0  0  0  0
  -20.2121    3.2322  -14.5217 C   0  0  0  0  0  0  0  0  0  0  0  0
  -18.7005    3.0558  -14.3852 C   0  0  0  0  0  0  0  0  0  0  0  0
  -14.5002    4.5995  -17.5887 S   0  0  0  0  0  0  0  0  0  0  0  0
  -13.3471    5.0076  -16.3343 C   0  0  0  0  0  0  0  0  0  0  0  0
  -13.2547    4.3781  -15.1148 C   0  0  0  0  0  0  0  0  0  0  0  0
  -12.2805    5.0276  -14.4068 N   0  0  0  0  0  0  0  0  0  0  0  0
  -12.0495    6.2549  -14.9865 C   0  0  0  0  0  0  0  0  0  0  0  0
  -11.4802    7.4199  -14.4648 C   0  0  0  0  0  0  0  0  0  0  0  0
  -11.3164    8.4966  -15.3403 C   0  0  0  0  0  0  0  0  0  0  0  0
  -11.6002    8.3664  -16.6991 C   0  0  0  0  0  0  0  0  0  0  0  0
  -12.1864    7.1974  -17.1991 C   0  0  0  0  0  0  0  0  0  0  0  0
  -12.5107    6.1609  -16.3010 C   0  0  0  0  0  0  0  0  0  0  0  0
  -11.8736    4.7097  -13.5376 H   0  0  0  0  0  0  0  0  0  0  0  0
  7  8  2  0  0  0
  8  9  1  0  0  0
  8 10  1  0  0  0
  9 13  1  0  0  0
  9 11  1  0  0  0
 13 14  1  0  0  0
 13 18  2  0  0  0
 14 15  2  0  0  0
 15 16  1  0  0  0
 16 17  2  0  0  0
 17 18  1  0  0  0
 10  1  1  0  0  0
 10 12  1  0  0  0
  1  2  1  0  0  0
  1  6  2  0  0  0
  2  3  2  0  0  0
  3 25  1  0  0  0
  3  4  1  0  0  0
 25 26  1  0  0  0
 26 27  2  0  0  0
 26 34  1  0  0  0
 27 28  1  0  0  0
 28 29  1  0  0  0
 28 35  1  0  0  0
 29 30  1  0  0  0
 29 34  2  0  0  0
 30 31  2  0  0  0
 31 32  1  0  0  0
 32 33  2  0  0  0
 33 34  1  0  0  0
  4  5  2  0  0  0
  5 19  1  0  0  0
  5  6  1  0  0  0
 19 20  1  0  0  0
 19 24  1  0  0  0
 20 21  1  0  0  0
 21 22  1  0  0  0
 22 23  1  0  0  0
 23 24  1  0  0  0
M  END
> <minimizedAffinity>
-9.73078

$$$$
