CHEMBL2018748


 30 32  0  0  0  0  0  0  0  0999 V2000
  -17.8981    3.2263  -14.7769 N   0  0  0  0  0  0  0  0  0  0  0  0
  -17.6327    3.5985  -13.8750 H   0  0  0  0  0  0  0  0  0  0  0  0
  -16.7076    2.9329  -15.5488 C   0  0  0  0  0  0  0  0  0  0  0  0
  -16.3786    3.6162  -16.6855 N   0  0  0  0  0  0  0  0  0  0  0  0
  -15.2629    3.2687  -17.3444 C   0  0  0  0  0  0  0  0  0  0  0  0
  -14.4340    2.3039  -16.9911 N   0  0  0  0  0  0  0  0  0  0  0  0
  -14.7631    1.6560  -15.9042 C   0  0  0  0  0  0  0  0  0  0  0  0
  -13.8816    0.6539  -15.6980 C   0  0  0  0  0  0  0  0  0  0  0  0
  -13.9206   -0.1519  -14.5851 C   0  0  0  0  0  0  0  0  0  0  0  0
  -14.9918    0.0058  -13.6961 C   0  0  0  0  0  0  0  0  0  0  0  0
  -15.9376    1.0398  -13.9108 C   0  0  0  0  0  0  0  0  0  0  0  0
  -15.8502    1.8933  -15.0615 C   0  0  0  0  0  0  0  0  0  0  0  0
  -12.9189   -1.0708  -14.4075 O   0  0  0  0  0  0  0  0  0  0  0  0
  -12.8062   -2.0386  -15.4627 C   0  0  0  0  0  0  0  0  0  0  0  0
  -15.2059   -0.7675  -12.5820 O   0  0  0  0  0  0  0  0  0  0  0  0
  -15.6995   -2.0739  -12.8841 C   0  0  0  0  0  0  0  0  0  0  0  0
  -21.7402    1.3052  -14.4075 C   0  0  0  0  0  0  0  0  0  0  0  0
  -21.5333    2.6368  -14.0487 C   0  0  0  0  0  0  0  0  0  0  0  0
  -20.2791    3.2726  -14.1733 C   0  0  0  0  0  0  0  0  0  0  0  0
  -19.1892    2.6200  -14.6896 C   0  0  0  0  0  0  0  0  0  0  0  0
  -19.3769    1.2503  -15.0332 C   0  0  0  0  0  0  0  0  0  0  0  0
  -20.6373    0.5935  -14.8952 C   0  0  0  0  0  0  0  0  0  0  0  0
  -23.2310   -0.2474  -13.1943 C   0  0  0  0  0  0  0  0  0  0  0  0
  -22.5627   -0.3626  -12.1732 O   0  0  0  0  0  0  0  0  0  0  0  0
  -23.0135    0.7055  -14.1812 N   0  0  0  0  0  0  0  0  0  0  0  0
  -23.7794    0.8989  -14.8194 H   0  0  0  0  0  0  0  0  0  0  0  0
  -24.2374   -1.1197  -13.5091 O   0  0  0  0  0  0  0  0  0  0  0  0
  -25.1131   -1.4186  -12.3898 C   0  0  0  0  0  0  0  0  0  0  0  0
  -27.5222   -1.4288  -11.6216 C   0  0  0  0  0  0  0  0  0  0  0  0
  -26.5682   -1.6580  -12.7945 C   0  0  0  0  0  0  0  0  0  0  0  0
 29 30  1  0  0  0
 30 28  1  0  0  0
 28 27  1  0  0  0
 27 23  1  0  0  0
 23 24  2  0  0  0
 23 25  1  0  0  0
 25 17  1  0  0  0
 25 26  1  0  0  0
 17 18  1  0  0  0
 17 22  2  0  0  0
 18 19  2  0  0  0
 19 20  1  0  0  0
 20  1  1  0  0  0
 20 21  2  0  0  0
  1  3  1  0  0  0
  1  2  1  0  0  0
  3  4  1  0  0  0
  3 12  2  0  0  0
  4  5  2  0  0  0
  5  6  1  0  0  0
  6  7  2  0  0  0
  7  8  1  0  0  0
  7 12  1  0  0  0
  8  9  2  0  0  0
  9 13  1  0  0  0
  9 10  1  0  0  0
 13 14  1  0  0  0
 10 15  1  0  0  0
 10 11  2  0  0  0
 15 16  1  0  0  0
 11 12  1  0  0  0
 21 22  1  0  0  0
M  END
> <minimizedAffinity>
-7.60552

$$$$
