CHEMBL4547332


 36 38  0  0  0  0  0  0  0  0999 V2000
  -13.7910   -3.9306  -13.6677 C   0  0  0  0  0  0  0  0  0  0  0  0
  -13.8553   -2.7885  -14.4546 C   0  0  0  0  0  0  0  0  0  0  0  0
  -13.1149   -1.6452  -14.0934 C   0  0  0  0  0  0  0  0  0  0  0  0
  -13.2903   -0.3885  -14.6882 C   0  0  0  0  0  0  0  0  0  0  0  0
  -12.5444    0.6743  -14.3124 N   0  0  0  0  0  0  0  0  0  0  0  0
  -11.6599    0.4808  -13.3317 C   0  0  0  0  0  0  0  0  0  0  0  0
  -11.4692   -0.6539  -12.6581 N   0  0  0  0  0  0  0  0  0  0  0  0
  -12.2065   -1.7109  -13.0273 C   0  0  0  0  0  0  0  0  0  0  0  0
  -12.0986   -2.8917  -12.3022 C   0  0  0  0  0  0  0  0  0  0  0  0
  -12.8744   -4.0157  -12.6054 C   0  0  0  0  0  0  0  0  0  0  0  0
  -16.0555   -4.7750  -13.2787 C   0  0  0  0  0  0  0  0  0  0  0  0
  -16.9689   -5.5065  -13.6435 O   0  0  0  0  0  0  0  0  0  0  0  0
  -14.8059   -4.8835  -13.8536 N   0  0  0  0  0  0  0  0  0  0  0  0
  -14.9145   -5.2687  -14.7849 H   0  0  0  0  0  0  0  0  0  0  0  0
  -16.2425   -3.9538  -10.9882 C   0  0  0  0  0  0  0  0  0  0  0  0
  -16.2649   -3.6766  -12.2980 C   0  0  0  0  0  0  0  0  0  0  0  0
  -14.3533   -0.1753  -15.6086 N   0  0  0  0  0  0  0  0  0  0  0  0
  -14.0256   -0.1501  -16.5701 H   0  0  0  0  0  0  0  0  0  0  0  0
  -15.4311    0.7080  -15.3766 C   0  0  0  0  0  0  0  0  0  0  0  0
  -15.5507    1.8927  -16.1174 C   0  0  0  0  0  0  0  0  0  0  0  0
  -16.7034    2.6744  -16.0407 C   0  0  0  0  0  0  0  0  0  0  0  0
  -17.7385    2.2892  -15.1927 C   0  0  0  0  0  0  0  0  0  0  0  0
  -19.3592    3.2614  -15.2093 Br  0  0  0  0  0  0  0  0  0  0  0  0
  -17.6025    1.1733  -14.3702 C   0  0  0  0  0  0  0  0  0  0  0  0
  -16.4469    0.3986  -14.4630 C   0  0  0  0  0  0  0  0  0  0  0  0
  -16.3355   -0.6968  -13.6945 F   0  0  0  0  0  0  0  0  0  0  0  0
  -12.6868   -5.1065  -11.7847 O   0  0  0  0  0  0  0  0  0  0  0  0
  -11.4084   -5.7219  -11.9546 C   0  0  0  0  0  0  0  0  0  0  0  0
  -11.5087   -7.1452  -12.4819 C   0  0  0  0  0  0  0  0  0  0  0  0
  -12.9123   -7.6646  -12.1682 C   0  0  0  0  0  0  0  0  0  0  0  0
  -13.7105   -8.0138  -13.4032 C   0  0  0  0  0  0  0  0  0  0  0  0
  -14.9288   -8.1840  -13.3651 O   0  0  0  0  0  0  0  0  0  0  0  0
  -12.9237   -8.1869  -14.7012 C   0  0  0  0  0  0  0  0  0  0  0  0
  -13.2560   -7.1214  -15.6699 N   0  0  0  0  0  0  0  0  0  0  0  0
  -12.1016   -6.2514  -15.9222 C   0  0  0  0  0  0  0  0  0  0  0  0
  -13.6997   -7.7207  -16.9321 C   0  0  0  0  0  0  0  0  0  0  0  0
 15 16  2  0  0  0
 16 11  1  0  0  0
 11 12  2  0  0  0
 11 13  1  0  0  0
 13  1  1  0  0  0
 13 14  1  0  0  0
  1  2  1  0  0  0
  1 10  2  0  0  0
  2  3  2  0  0  0
  3  4  1  0  0  0
  3  8  1  0  0  0
  4 17  1  0  0  0
  4  5  2  0  0  0
 17 19  1  0  0  0
 17 18  1  0  0  0
 19 20  1  0  0  0
 19 25  2  0  0  0
 20 21  2  0  0  0
 21 22  1  0  0  0
 22 23  1  0  0  0
 22 24  2  0  0  0
 24 25  1  0  0  0
 25 26  1  0  0  0
  5  6  1  0  0  0
  6  7  2  0  0  0
  7  8  1  0  0  0
  8  9  2  0  0  0
  9 10  1  0  0  0
 10 27  1  0  0  0
 27 28  1  0  0  0
 28 29  1  0  0  0
 29 30  1  0  0  0
 30 31  1  0  0  0
 31 32  2  0  0  0
 31 33  1  0  0  0
 33 34  1  0  0  0
 34 35  1  0  0  0
 34 36  1  0  0  0
M  END
> <minimizedAffinity>
-6.70521

$$$$
