CHEMBL1973211


 39 43  0  0  0  0  0  0  0  0999 V2000
  -27.8428   -2.2983   -8.7442 C   0  0  0  0  0  0  0  0  0  0  0  0
  -28.3202   -3.5944   -8.8171 C   0  0  0  0  0  0  0  0  0  0  0  0
  -29.2120   -4.0740   -7.4611 S   0  0  0  0  0  0  0  0  0  0  0  0
  -29.0105   -2.5481   -6.6855 C   0  0  0  0  0  0  0  0  0  0  0  0
  -29.5184   -2.1700   -5.4287 C   0  0  0  0  0  0  0  0  0  0  0  0
  -29.2302   -0.8893   -5.0140 C   0  0  0  0  0  0  0  0  0  0  0  0
  -28.5160   -0.0064   -5.7315 N   0  0  0  0  0  0  0  0  0  0  0  0
  -28.0341   -0.3484   -6.9463 C   0  0  0  0  0  0  0  0  0  0  0  0
  -27.3579    0.6810   -7.5878 N   0  0  0  0  0  0  0  0  0  0  0  0
  -28.2499   -1.6575   -7.4777 C   0  0  0  0  0  0  0  0  0  0  0  0
  -27.5207    1.5537   -7.0982 H   0  0  0  0  0  0  0  0  0  0  0  0
  -27.5248    0.7151   -8.5853 H   0  0  0  0  0  0  0  0  0  0  0  0
  -25.5548   -0.9257  -12.1354 C   0  0  0  0  0  0  0  0  0  0  0  0
  -24.9402   -1.1486  -10.9014 C   0  0  0  0  0  0  0  0  0  0  0  0
  -25.6894   -1.5744   -9.7982 C   0  0  0  0  0  0  0  0  0  0  0  0
  -27.0786   -1.7558   -9.8901 C   0  0  0  0  0  0  0  0  0  0  0  0
  -27.6906   -1.4183  -11.1051 C   0  0  0  0  0  0  0  0  0  0  0  0
  -26.9380   -1.0402  -12.2304 C   0  0  0  0  0  0  0  0  0  0  0  0
  -23.0184    0.4176  -14.3600 N   0  0  0  0  0  0  0  0  0  0  0  0
  -23.6849    0.2099  -13.1566 C   0  0  0  0  0  0  0  0  0  0  0  0
  -23.3535    0.6760  -12.0741 O   0  0  0  0  0  0  0  0  0  0  0  0
  -24.7841   -0.6348  -13.2929 N   0  0  0  0  0  0  0  0  0  0  0  0
  -23.4602    0.0728  -15.1951 H   0  0  0  0  0  0  0  0  0  0  0  0
  -24.6523   -1.3935  -13.9438 H   0  0  0  0  0  0  0  0  0  0  0  0
  -18.1049    0.5670  -15.2093 C   0  0  0  0  0  0  0  0  0  0  0  0
  -19.4180    1.2514  -14.9281 C   0  0  0  0  0  0  0  0  0  0  0  0
  -19.4331    2.6517  -14.8208 C   0  0  0  0  0  0  0  0  0  0  0  0
  -20.6311    3.3062  -14.5657 C   0  0  0  0  0  0  0  0  0  0  0  0
  -21.8086    2.5822  -14.4115 C   0  0  0  0  0  0  0  0  0  0  0  0
  -21.8262    1.1861  -14.5154 C   0  0  0  0  0  0  0  0  0  0  0  0
  -20.6091    0.5276  -14.7739 C   0  0  0  0  0  0  0  0  0  0  0  0
  -30.2891   -3.0677   -4.6213 C   0  0  0  0  0  0  0  0  0  0  0  0
  -30.9796   -3.9017   -3.8950 C   0  0  0  0  0  0  0  0  0  0  0  0
  -31.7845   -4.8741   -3.0484 C   0  0  0  0  0  0  0  0  0  0  0  0
  -31.5083   -6.2865   -3.3582 N   0  0  0  0  0  0  0  0  0  0  0  0
  -30.2053   -6.7696   -2.8774 C   0  0  0  0  0  0  0  0  0  0  0  0
  -29.2184   -6.4402   -3.9798 C   0  0  0  0  0  0  0  0  0  0  0  0
  -30.0216   -6.6926   -5.2392 C   0  0  0  0  0  0  0  0  0  0  0  0
  -31.4804   -6.5056   -4.8197 C   0  0  0  0  0  0  0  0  0  0  0  0
 25 26  1  0  0  0
 26 27  1  0  0  0
 26 31  2  0  0  0
 27 28  2  0  0  0
 28 29  1  0  0  0
 29 30  2  0  0  0
 30 19  1  0  0  0
 30 31  1  0  0  0
 19 20  1  0  0  0
 19 23  1  0  0  0
 20 21  2  0  0  0
 20 22  1  0  0  0
 22 13  1  0  0  0
 22 24  1  0  0  0
 13 14  1  0  0  0
 13 18  2  0  0  0
 14 15  2  0  0  0
 15 16  1  0  0  0
 16  1  1  0  0  0
 16 17  2  0  0  0
  1  2  2  0  0  0
  1 10  1  0  0  0
  2  3  1  0  0  0
  3  4  1  0  0  0
  4  5  1  0  0  0
  4 10  2  0  0  0
  5 32  1  0  0  0
  5  6  2  0  0  0
 32 33  3  0  0  0
 33 34  1  0  0  0
 34 35  1  0  0  0
 35 36  1  0  0  0
 35 39  1  0  0  0
 36 37  1  0  0  0
 37 38  1  0  0  0
 38 39  1  0  0  0
  6  7  1  0  0  0
  7  8  2  0  0  0
  8  9  1  0  0  0
  8 10  1  0  0  0
  9 11  1  0  0  0
  9 12  1  0  0  0
 17 18  1  0  0  0
M  END
> <minimizedAffinity>
-8.86432

$$$$
