CHEMBL4237289


 32 35  0  0  0  0  0  0  0  0999 V2000
  -13.5451   -3.5140  -10.9053 C   0  0  0  0  0  0  0  0  0  0  0  0
  -12.9112   -2.9465  -12.0213 C   0  0  0  0  0  0  0  0  0  0  0  0
  -13.6291   -2.2855  -13.0158 C   0  0  0  0  0  0  0  0  0  0  0  0
  -15.0194   -2.2156  -12.9656 C   0  0  0  0  0  0  0  0  0  0  0  0
  -15.6706   -2.7278  -11.8424 C   0  0  0  0  0  0  0  0  0  0  0  0
  -14.9355   -3.3468  -10.8150 C   0  0  0  0  0  0  0  0  0  0  0  0
  -11.3671   -3.4985   -6.3635 C   0  0  0  0  0  0  0  0  0  0  0  0
  -11.6231   -4.2283   -7.6561 C   0  0  0  0  0  0  0  0  0  0  0  0
  -12.4703   -3.6325   -8.6240 C   0  0  0  0  0  0  0  0  0  0  0  0
  -12.7307   -4.1981   -9.8971 C   0  0  0  0  0  0  0  0  0  0  0  0
  -12.0399   -5.4172  -10.0071 C   0  0  0  0  0  0  0  0  0  0  0  0
  -11.9329   -6.2888  -11.0664 C   0  0  0  0  0  0  0  0  0  0  0  0
  -12.3750   -6.3244  -12.3393 N   0  0  0  0  0  0  0  0  0  0  0  0
  -11.1640   -7.3521  -10.6894 O   0  0  0  0  0  0  0  0  0  0  0  0
  -10.6999   -7.1789   -9.3984 N   0  0  0  0  0  0  0  0  0  0  0  0
  -11.2103   -6.0140   -8.9937 C   0  0  0  0  0  0  0  0  0  0  0  0
  -10.9845   -5.4204   -7.7919 N   0  0  0  0  0  0  0  0  0  0  0  0
  -12.5462   -5.4453  -12.8197 H   0  0  0  0  0  0  0  0  0  0  0  0
  -11.9641   -7.0265  -12.9493 H   0  0  0  0  0  0  0  0  0  0  0  0
  -15.7752   -1.6275  -14.0040 N   0  0  0  0  0  0  0  0  0  0  0  0
  -16.3911   -0.3915  -13.9042 C   0  0  0  0  0  0  0  0  0  0  0  0
  -16.2278    0.3998  -12.9767 O   0  0  0  0  0  0  0  0  0  0  0  0
  -17.2437   -0.1523  -14.9679 N   0  0  0  0  0  0  0  0  0  0  0  0
  -15.6259   -1.9703  -14.9418 H   0  0  0  0  0  0  0  0  0  0  0  0
  -17.7244   -0.9747  -15.3058 H   0  0  0  0  0  0  0  0  0  0  0  0
  -17.9203    1.0824  -15.0935 C   0  0  0  0  0  0  0  0  0  0  0  0
  -17.2711    2.2248  -15.5775 C   0  0  0  0  0  0  0  0  0  0  0  0
  -17.9475    3.4419  -15.6673 C   0  0  0  0  0  0  0  0  0  0  0  0
  -19.2780    3.5252  -15.2648 C   0  0  0  0  0  0  0  0  0  0  0  0
  -19.9254    2.3862  -14.7867 C   0  0  0  0  0  0  0  0  0  0  0  0
  -21.5521    2.5054  -14.2370 Cl  0  0  0  0  0  0  0  0  0  0  0  0
  -19.2629    1.1595  -14.7208 C   0  0  0  0  0  0  0  0  0  0  0  0
  7  8  1  0  0  0
  8  9  1  0  0  0
  8 17  2  0  0  0
  9 10  2  0  0  0
 10  1  1  0  0  0
 10 11  1  0  0  0
  1  2  1  0  0  0
  1  6  2  0  0  0
  2  3  2  0  0  0
  3  4  1  0  0  0
  4 20  1  0  0  0
  4  5  2  0  0  0
 20 21  1  0  0  0
 20 24  1  0  0  0
 21 22  2  0  0  0
 21 23  1  0  0  0
 23 26  1  0  0  0
 23 25  1  0  0  0
 26 27  1  0  0  0
 26 32  2  0  0  0
 27 28  2  0  0  0
 28 29  1  0  0  0
 29 30  2  0  0  0
 30 31  1  0  0  0
 30 32  1  0  0  0
  5  6  1  0  0  0
 11 12  2  0  0  0
 11 16  1  0  0  0
 12 13  1  0  0  0
 12 14  1  0  0  0
 13 18  1  0  0  0
 13 19  1  0  0  0
 14 15  1  0  0  0
 15 16  2  0  0  0
 16 17  1  0  0  0
M  END
> <minimizedAffinity>
-9.17956

$$$$
