CHEMBL365815


 32 35  0  0  0  0  0  0  0  0999 V2000
  -31.2616   -9.5146   -8.3854 C   0  0  0  0  0  0  0  0  0  0  0  0
  -32.5199   -9.4136   -8.0157 N   0  0  0  0  0  0  0  0  0  0  0  0
  -32.5647   -8.3078   -7.2244 C   0  0  0  0  0  0  0  0  0  0  0  0
  -31.3120   -7.7547   -7.1168 C   0  0  0  0  0  0  0  0  0  0  0  0
  -30.4633   -8.5155   -7.8886 O   0  0  0  0  0  0  0  0  0  0  0  0
  -30.7645   -6.6198   -6.3927 C   0  0  0  0  0  0  0  0  0  0  0  0
  -30.9366   -6.5207   -5.0053 C   0  0  0  0  0  0  0  0  0  0  0  0
  -30.4152   -5.4379   -4.3014 C   0  0  0  0  0  0  0  0  0  0  0  0
  -29.7251   -4.4347   -4.9798 C   0  0  0  0  0  0  0  0  0  0  0  0
  -29.5332   -4.5057   -6.3672 C   0  0  0  0  0  0  0  0  0  0  0  0
  -30.0420   -5.6169   -7.0528 C   0  0  0  0  0  0  0  0  0  0  0  0
  -28.7768   -3.4556   -7.0542 C   0  0  0  0  0  0  0  0  0  0  0  0
  -28.0066   -3.5379   -8.2057 C   0  0  0  0  0  0  0  0  0  0  0  0
  -27.4397   -2.3361   -8.5322 N   0  0  0  0  0  0  0  0  0  0  0  0
  -27.8406   -1.5106   -7.5970 C   0  0  0  0  0  0  0  0  0  0  0  0
  -28.6458   -2.1316   -6.6812 N   0  0  0  0  0  0  0  0  0  0  0  0
  -29.1874   -1.4719   -5.5172 C   0  0  0  0  0  0  0  0  0  0  0  0
  -30.6510  -10.4665   -9.1168 N   0  0  0  0  0  0  0  0  0  0  0  0
  -31.1463  -10.8692   -9.9051 H   0  0  0  0  0  0  0  0  0  0  0  0
  -27.1362  -11.2605   -8.1027 C   0  0  0  0  0  0  0  0  0  0  0  0
  -26.4511  -11.0337   -9.2913 C   0  0  0  0  0  0  0  0  0  0  0  0
  -27.1629  -10.6567  -10.4331 C   0  0  0  0  0  0  0  0  0  0  0  0
  -28.5549  -10.4816  -10.3845 C   0  0  0  0  0  0  0  0  0  0  0  0
  -29.2524  -10.6971   -9.1714 C   0  0  0  0  0  0  0  0  0  0  0  0
  -28.5217  -11.1254   -8.0517 C   0  0  0  0  0  0  0  0  0  0  0  0
  -26.2743  -11.7688   -6.6352 S   0  0  0  0  0  0  0  0  0  0  0  0
  -25.0729  -12.4613   -7.0682 O   0  0  0  0  0  0  0  0  0  0  0  0
  -27.2437  -12.4255   -5.7826 O   0  0  0  0  0  0  0  0  0  0  0  0
  -26.8427   -9.7222   -4.9229 C   0  0  0  0  0  0  0  0  0  0  0  0
  -25.7643  -10.2480   -5.8549 C   0  0  0  0  0  0  0  0  0  0  0  0
  -29.3296  -10.1026  -11.4584 O   0  0  0  0  0  0  0  0  0  0  0  0
  -28.6680   -9.9800  -12.7151 C   0  0  0  0  0  0  0  0  0  0  0  0
 29 30  1  0  0  0
 30 26  1  0  0  0
 26 27  2  0  0  0
 26 28  2  0  0  0
 26 20  1  0  0  0
 20 21  1  0  0  0
 20 25  2  0  0  0
 21 22  2  0  0  0
 22 23  1  0  0  0
 23 31  1  0  0  0
 23 24  2  0  0  0
 31 32  1  0  0  0
 24 18  1  0  0  0
 24 25  1  0  0  0
 18  1  1  0  0  0
 18 19  1  0  0  0
  1  2  2  0  0  0
  1  5  1  0  0  0
  2  3  1  0  0  0
  3  4  2  0  0  0
  4  6  1  0  0  0
  4  5  1  0  0  0
  6  7  1  0  0  0
  6 11  2  0  0  0
  7  8  2  0  0  0
  8  9  1  0  0  0
  9 10  2  0  0  0
 10 12  1  0  0  0
 10 11  1  0  0  0
 12 13  2  0  0  0
 12 16  1  0  0  0
 13 14  1  0  0  0
 14 15  2  0  0  0
 15 16  1  0  0  0
 16 17  1  0  0  0
M  END
> <minimizedAffinity>
-8.28214

$$$$
