CHEMBL203003


 27 30  0  0  0  0  0  0  0  0999 V2000
  -16.5159    0.8466  -14.3638 C   0  0  0  0  0  0  0  0  0  0  0  0
  -17.9242    0.9697  -14.3908 C   0  0  0  0  0  0  0  0  0  0  0  0
  -18.5584    1.9230  -15.1856 C   0  0  0  0  0  0  0  0  0  0  0  0
  -17.7983    2.7709  -15.9729 C   0  0  0  0  0  0  0  0  0  0  0  0
  -16.4118    2.6260  -16.0065 C   0  0  0  0  0  0  0  0  0  0  0  0
  -15.7398    1.6466  -15.2399 C   0  0  0  0  0  0  0  0  0  0  0  0
  -15.4430    0.1651  -12.3778 O   0  0  0  0  0  0  0  0  0  0  0  0
  -15.9270   -0.1887  -13.4462 C   0  0  0  0  0  0  0  0  0  0  0  0
  -15.9740   -1.5015  -13.9115 N   0  0  0  0  0  0  0  0  0  0  0  0
  -16.4686   -1.6754  -14.7779 H   0  0  0  0  0  0  0  0  0  0  0  0
  -15.4674   -2.6597  -13.2772 C   0  0  0  0  0  0  0  0  0  0  0  0
  -14.2054   -3.1968  -13.5299 C   0  0  0  0  0  0  0  0  0  0  0  0
  -13.7456   -4.3086  -12.8119 C   0  0  0  0  0  0  0  0  0  0  0  0
  -14.5565   -4.9002  -11.8492 C   0  0  0  0  0  0  0  0  0  0  0  0
  -13.9729   -6.2382  -10.9401 Cl  0  0  0  0  0  0  0  0  0  0  0  0
  -15.8347   -4.4031  -11.6121 C   0  0  0  0  0  0  0  0  0  0  0  0
  -16.2879   -3.2863  -12.3239 C   0  0  0  0  0  0  0  0  0  0  0  0
  -14.2591    1.4614  -15.5215 C   0  0  0  0  0  0  0  0  0  0  0  0
  -13.3470    2.1673  -14.6194 N   0  0  0  0  0  0  0  0  0  0  0  0
  -12.5743    1.5257  -13.6784 C   0  0  0  0  0  0  0  0  0  0  0  0
  -11.6507    2.4190  -13.1891 C   0  0  0  0  0  0  0  0  0  0  0  0
  -11.8477    3.6550  -13.8577 C   0  0  0  0  0  0  0  0  0  0  0  0
  -11.1956    4.8954  -13.8061 C   0  0  0  0  0  0  0  0  0  0  0  0
  -11.5924    5.9223  -14.5942 N   0  0  0  0  0  0  0  0  0  0  0  0
  -12.6219    5.7219  -15.4415 C   0  0  0  0  0  0  0  0  0  0  0  0
  -13.3215    4.5307  -15.5796 C   0  0  0  0  0  0  0  0  0  0  0  0
  -12.9144    3.4802  -14.7498 C   0  0  0  0  0  0  0  0  0  0  0  0
  7  8  2  0  0  0
  8  9  1  0  0  0
  8  1  1  0  0  0
  9 11  1  0  0  0
  9 10  1  0  0  0
 11 12  1  0  0  0
 11 17  2  0  0  0
 12 13  2  0  0  0
 13 14  1  0  0  0
 14 15  1  0  0  0
 14 16  2  0  0  0
 16 17  1  0  0  0
  1  2  1  0  0  0
  1  6  2  0  0  0
  2  3  2  0  0  0
  3  4  1  0  0  0
  4  5  2  0  0  0
  5  6  1  0  0  0
  6 18  1  0  0  0
 18 19  1  0  0  0
 19 20  1  0  0  0
 19 27  1  0  0  0
 20 21  2  0  0  0
 21 22  1  0  0  0
 22 23  1  0  0  0
 22 27  2  0  0  0
 23 24  2  0  0  0
 24 25  1  0  0  0
 25 26  2  0  0  0
 26 27  1  0  0  0
M  END
> <minimizedAffinity>
-7.86846

$$$$
