CHEMBL3671516


 34 36  0  0  0  0  0  0  0  0999 V2000
  -29.6726   -4.8919   -7.0113 C   0  0  0  0  0  0  0  0  0  0  0  0
  -28.9196   -4.2029   -7.9699 C   0  0  0  0  0  0  0  0  0  0  0  0
  -28.4556   -2.8924   -7.7200 C   0  0  0  0  0  0  0  0  0  0  0  0
  -27.8234   -2.0633   -8.6652 C   0  0  0  0  0  0  0  0  0  0  0  0
  -27.3981   -0.8246   -8.3503 N   0  0  0  0  0  0  0  0  0  0  0  0
  -27.6240   -0.4038   -7.1069 C   0  0  0  0  0  0  0  0  0  0  0  0
  -28.2603   -1.0871   -6.1507 N   0  0  0  0  0  0  0  0  0  0  0  0
  -28.6887   -2.3136   -6.4654 C   0  0  0  0  0  0  0  0  0  0  0  0
  -29.4173   -3.0281   -5.5155 C   0  0  0  0  0  0  0  0  0  0  0  0
  -29.9300   -4.3106   -5.7660 C   0  0  0  0  0  0  0  0  0  0  0  0
  -29.5483   -7.2886   -7.2733 C   0  0  0  0  0  0  0  0  0  0  0  0
  -28.4825   -7.4035   -6.6802 O   0  0  0  0  0  0  0  0  0  0  0  0
  -30.2558   -6.1096   -7.4110 N   0  0  0  0  0  0  0  0  0  0  0  0
  -31.2620   -6.1893   -7.3112 H   0  0  0  0  0  0  0  0  0  0  0  0
  -31.5342   -8.6795   -7.6082 C   0  0  0  0  0  0  0  0  0  0  0  0
  -30.2485   -8.4409   -7.8936 C   0  0  0  0  0  0  0  0  0  0  0  0
  -27.6862   -2.4924  -10.0134 N   0  0  0  0  0  0  0  0  0  0  0  0
  -27.7031   -3.5085  -10.0672 H   0  0  0  0  0  0  0  0  0  0  0  0
  -26.7659   -1.9243  -10.9293 C   0  0  0  0  0  0  0  0  0  0  0  0
  -25.4826   -1.5348  -10.5158 C   0  0  0  0  0  0  0  0  0  0  0  0
  -24.5415   -1.0673  -11.4353 C   0  0  0  0  0  0  0  0  0  0  0  0
  -24.8883   -0.9591  -12.7798 C   0  0  0  0  0  0  0  0  0  0  0  0
  -23.5848   -0.4165  -14.0362 Br  0  0  0  0  0  0  0  0  0  0  0  0
  -26.1785   -1.2667  -13.2037 C   0  0  0  0  0  0  0  0  0  0  0  0
  -27.1065   -1.7339  -12.2742 C   0  0  0  0  0  0  0  0  0  0  0  0
  -28.3440   -2.0438  -12.6920 F   0  0  0  0  0  0  0  0  0  0  0  0
  -30.8443   -5.1259   -4.4494 S   0  0  0  0  0  0  0  0  0  0  0  0
  -29.4624   -5.8823   -3.5137 C   0  0  0  0  0  0  0  0  0  0  0  0
  -29.5533   -7.4090   -3.4439 C   0  0  0  0  0  0  0  0  0  0  0  0
  -28.2482   -8.0242   -3.6571 N   0  0  0  0  0  0  0  0  0  0  0  0
  -28.0793   -9.3890   -3.5918 C   0  0  0  0  0  0  0  0  0  0  0  0
  -26.7000   -9.8707   -3.9495 C   0  0  0  0  0  0  0  0  0  0  0  0
  -28.9859  -10.1691   -3.2910 O   0  0  0  0  0  0  0  0  0  0  0  0
  -27.5078   -7.4646   -4.0653 H   0  0  0  0  0  0  0  0  0  0  0  0
 15 16  2  0  0  0
 16 11  1  0  0  0
 11 12  2  0  0  0
 11 13  1  0  0  0
 13  1  1  0  0  0
 13 14  1  0  0  0
  1  2  1  0  0  0
  1 10  2  0  0  0
  2  3  2  0  0  0
  3  4  1  0  0  0
  3  8  1  0  0  0
  4 17  1  0  0  0
  4  5  2  0  0  0
 17 19  1  0  0  0
 17 18  1  0  0  0
 19 20  1  0  0  0
 19 25  2  0  0  0
 20 21  2  0  0  0
 21 22  1  0  0  0
 22 23  1  0  0  0
 22 24  2  0  0  0
 24 25  1  0  0  0
 25 26  1  0  0  0
  5  6  1  0  0  0
  6  7  2  0  0  0
  7  8  1  0  0  0
  8  9  2  0  0  0
  9 10  1  0  0  0
 10 27  1  0  0  0
 27 28  1  0  0  0
 28 29  1  0  0  0
 29 30  1  0  0  0
 30 31  1  0  0  0
 30 34  1  0  0  0
 31 32  1  0  0  0
 31 33  2  0  0  0
M  END
> <minimizedAffinity>
-8.74921

$$$$
