CHEMBL3969393


 28 31  0  0  0  0  0  0  0  0999 V2000
  -29.3749   -8.1444   -6.6299 C   0  0  0  0  0  0  0  0  0  0  0  0
  -30.1838   -7.1123   -7.1174 C   0  0  0  0  0  0  0  0  0  0  0  0
  -30.0225   -5.8030   -6.6575 C   0  0  0  0  0  0  0  0  0  0  0  0
  -29.0619   -5.5350   -5.6647 C   0  0  0  0  0  0  0  0  0  0  0  0
  -28.5904   -4.3743   -4.9833 C   0  0  0  0  0  0  0  0  0  0  0  0
  -27.6344   -4.6862   -4.0898 N   0  0  0  0  0  0  0  0  0  0  0  0
  -27.5105   -6.0223   -4.1988 N   0  0  0  0  0  0  0  0  0  0  0  0
  -28.3169   -6.5888   -5.1492 C   0  0  0  0  0  0  0  0  0  0  0  0
  -28.4500   -7.9088   -5.5983 C   0  0  0  0  0  0  0  0  0  0  0  0
  -26.8401   -6.4934   -3.6006 H   0  0  0  0  0  0  0  0  0  0  0  0
  -29.4735   -9.5193   -7.1887 C   0  0  0  0  0  0  0  0  0  0  0  0
  -30.1912  -10.3420   -6.6256 O   0  0  0  0  0  0  0  0  0  0  0  0
  -29.1932   -9.9082  -12.0760 N   0  0  0  0  0  0  0  0  0  0  0  0
  -28.6337  -10.1668  -10.8183 C   0  0  0  0  0  0  0  0  0  0  0  0
  -27.3055  -10.5916  -10.7181 C   0  0  0  0  0  0  0  0  0  0  0  0
  -26.7001  -10.7541   -9.4723 C   0  0  0  0  0  0  0  0  0  0  0  0
  -27.4057  -10.4460   -8.3112 C   0  0  0  0  0  0  0  0  0  0  0  0
  -28.7017   -9.9224   -8.3992 C   0  0  0  0  0  0  0  0  0  0  0  0
  -29.3082   -9.7847   -9.6550 C   0  0  0  0  0  0  0  0  0  0  0  0
  -28.8120  -10.4842  -12.8200 H   0  0  0  0  0  0  0  0  0  0  0  0
  -30.2098   -9.9107  -12.0762 H   0  0  0  0  0  0  0  0  0  0  0  0
  -29.0033   -2.9927   -5.1691 C   0  0  0  0  0  0  0  0  0  0  0  0
  -28.2331   -2.2087   -5.8512 N   0  0  0  0  0  0  0  0  0  0  0  0
  -28.6042   -0.9173   -5.9677 N   0  0  0  0  0  0  0  0  0  0  0  0
  -28.0806    0.0965   -6.7359 C   0  0  0  0  0  0  0  0  0  0  0  0
  -28.8263    1.2391   -6.5297 C   0  0  0  0  0  0  0  0  0  0  0  0
  -29.8611    0.9080   -5.6282 C   0  0  0  0  0  0  0  0  0  0  0  0
  -29.7169   -0.4255   -5.3262 C   0  0  0  0  0  0  0  0  0  0  0  0
 13 14  1  0  0  0
 13 20  1  0  0  0
 13 21  1  0  0  0
 14 15  1  0  0  0
 14 19  2  0  0  0
 15 16  2  0  0  0
 16 17  1  0  0  0
 17 18  2  0  0  0
 18 11  1  0  0  0
 18 19  1  0  0  0
 11 12  2  0  0  0
 11  1  1  0  0  0
  1  2  1  0  0  0
  1  9  2  0  0  0
  2  3  2  0  0  0
  3  4  1  0  0  0
  4  5  1  0  0  0
  4  8  2  0  0  0
  5 22  1  0  0  0
  5  6  2  0  0  0
 22 23  2  0  0  0
 23 24  1  0  0  0
 24 25  1  0  0  0
 24 28  1  0  0  0
 25 26  2  0  0  0
 26 27  1  0  0  0
 27 28  2  0  0  0
  6  7  1  0  0  0
  7  8  1  0  0  0
  7 10  1  0  0  0
  8  9  1  0  0  0
M  END
> <minimizedAffinity>
-8.85770

$$$$
