CHEMBL3690449


 34 37  0  0  0  0  0  0  0  0999 V2000
  -23.1357   -0.0480  -13.3960 C   0  0  0  0  0  0  0  0  0  0  0  0
  -23.2808   -0.0458  -11.9442 C   0  0  0  0  0  0  0  0  0  0  0  0
  -24.3973   -0.5269  -11.3881 C   0  0  0  0  0  0  0  0  0  0  0  0
  -25.4145   -1.0528  -12.1869 N   0  0  0  0  0  0  0  0  0  0  0  0
  -26.6353   -1.6266  -11.8540 C   0  0  0  0  0  0  0  0  0  0  0  0
  -27.1805   -1.9840  -13.0814 C   0  0  0  0  0  0  0  0  0  0  0  0
  -26.3685   -1.6445  -14.1277 N   0  0  0  0  0  0  0  0  0  0  0  0
  -25.3083   -1.0869  -13.5778 C   0  0  0  0  0  0  0  0  0  0  0  0
  -24.1266   -0.5621  -14.1706 C   0  0  0  0  0  0  0  0  0  0  0  0
  -27.1700   -1.8574  -10.5075 C   0  0  0  0  0  0  0  0  0  0  0  0
  -27.5445   -0.8106   -9.6766 C   0  0  0  0  0  0  0  0  0  0  0  0
  -28.0054   -1.0555   -8.3817 C   0  0  0  0  0  0  0  0  0  0  0  0
  -28.0522   -2.3640   -7.9046 C   0  0  0  0  0  0  0  0  0  0  0  0
  -27.6744   -3.4380   -8.6935 C   0  0  0  0  0  0  0  0  0  0  0  0
  -27.2503   -3.1787  -10.0106 C   0  0  0  0  0  0  0  0  0  0  0  0
  -27.6706   -4.7720   -8.1872 N   0  0  0  0  0  0  0  0  0  0  0  0
  -28.7579   -5.3747   -7.5938 C   0  0  0  0  0  0  0  0  0  0  0  0
  -29.8750   -4.8810   -7.4353 O   0  0  0  0  0  0  0  0  0  0  0  0
  -28.5198   -6.6455   -7.1424 N   0  0  0  0  0  0  0  0  0  0  0  0
  -26.8238   -5.3019   -8.2737 H   0  0  0  0  0  0  0  0  0  0  0  0
  -27.7011   -7.1608   -7.4388 H   0  0  0  0  0  0  0  0  0  0  0  0
  -29.6414   -7.3632   -6.5180 C   0  0  0  0  0  0  0  0  0  0  0  0
  -30.5009   -8.2413   -7.4309 C   0  0  0  0  0  0  0  0  0  0  0  0
  -29.9215   -8.4430   -8.6344 F   0  0  0  0  0  0  0  0  0  0  0  0
  -30.6841   -9.4628   -6.8680 F   0  0  0  0  0  0  0  0  0  0  0  0
  -31.7244   -7.7075   -7.6334 F   0  0  0  0  0  0  0  0  0  0  0  0
  -20.9506    0.9580  -14.4762 C   0  0  0  0  0  0  0  0  0  0  0  0
  -21.9523    0.4910  -13.9931 C   0  0  0  0  0  0  0  0  0  0  0  0
  -16.3526    1.1881  -15.7951 C   0  0  0  0  0  0  0  0  0  0  0  0
  -17.7084    1.6273  -15.5622 N   0  0  0  0  0  0  0  0  0  0  0  0
  -18.2028    2.8785  -15.8116 C   0  0  0  0  0  0  0  0  0  0  0  0
  -19.5290    2.8366  -15.4383 C   0  0  0  0  0  0  0  0  0  0  0  0
  -19.7364    1.5208  -14.9780 C   0  0  0  0  0  0  0  0  0  0  0  0
  -18.6261    0.7773  -15.0531 N   0  0  0  0  0  0  0  0  0  0  0  0
 29 30  1  0  0  0
 30 31  1  0  0  0
 30 34  1  0  0  0
 31 32  2  0  0  0
 32 33  1  0  0  0
 33 27  1  0  0  0
 33 34  2  0  0  0
 27 28  3  0  0  0
 28  1  1  0  0  0
  1  2  1  0  0  0
  1  9  2  0  0  0
  2  3  2  0  0  0
  3  4  1  0  0  0
  4  5  1  0  0  0
  4  8  1  0  0  0
  5 10  1  0  0  0
  5  6  2  0  0  0
 10 11  1  0  0  0
 10 15  2  0  0  0
 11 12  2  0  0  0
 12 13  1  0  0  0
 13 14  2  0  0  0
 14 16  1  0  0  0
 14 15  1  0  0  0
 16 17  1  0  0  0
 16 20  1  0  0  0
 17 18  2  0  0  0
 17 19  1  0  0  0
 19 22  1  0  0  0
 19 21  1  0  0  0
 22 23  1  0  0  0
 23 24  1  0  0  0
 23 25  1  0  0  0
 23 26  1  0  0  0
  6  7  1  0  0  0
  7  8  2  0  0  0
  8  9  1  0  0  0
M  END
> <minimizedAffinity>
-9.39397

$$$$
