CHEMBL364717


 20 21  0  0  0  0  0  0  0  0999 V2000
  -27.7282   -2.0916   -8.4316 N   0  0  0  0  0  0  0  0  0  0  0  0
  -27.8019   -1.0880   -7.5060 C   0  0  0  0  0  0  0  0  0  0  0  0
  -28.5380   -1.6285   -6.4816 C   0  0  0  0  0  0  0  0  0  0  0  0
  -28.8901   -1.0457   -5.2763 C   0  0  0  0  0  0  0  0  0  0  0  0
  -28.5925    0.2316   -4.8629 N   0  0  0  0  0  0  0  0  0  0  0  0
  -29.6043   -1.8699   -4.4689 N   0  0  0  0  0  0  0  0  0  0  0  0
  -29.9010   -3.1377   -4.9139 C   0  0  0  0  0  0  0  0  0  0  0  0
  -29.5957   -3.7654   -6.0810 N   0  0  0  0  0  0  0  0  0  0  0  0
  -28.8758   -2.9462   -6.8826 C   0  0  0  0  0  0  0  0  0  0  0  0
  -28.3864   -3.2208   -8.0938 N   0  0  0  0  0  0  0  0  0  0  0  0
  -27.9927    0.8259   -5.4105 H   0  0  0  0  0  0  0  0  0  0  0  0
  -28.8525    0.4815   -3.9232 H   0  0  0  0  0  0  0  0  0  0  0  0
  -26.9736   -2.0472   -9.6676 C   0  0  0  0  0  0  0  0  0  0  0  0
  -27.7484   -1.3306  -10.7706 C   0  0  0  0  0  0  0  0  0  0  0  0
  -26.9197   -1.1902  -12.0449 C   0  0  0  0  0  0  0  0  0  0  0  0
  -25.4399   -1.4367  -11.7612 C   0  0  0  0  0  0  0  0  0  0  0  0
  -24.6094   -0.1823  -11.9911 C   0  0  0  0  0  0  0  0  0  0  0  0
  -23.1383   -0.5424  -12.1781 C   0  0  0  0  0  0  0  0  0  0  0  0
  -21.7901    0.7125  -13.8796 C   0  0  0  0  0  0  0  0  0  0  0  0
  -22.7351   -0.4542  -13.6458 C   0  0  0  0  0  0  0  0  0  0  0  0
 19 20  1  0  0  0
 20 18  1  0  0  0
 18 17  1  0  0  0
 17 16  1  0  0  0
 16 15  1  0  0  0
 15 14  1  0  0  0
 14 13  1  0  0  0
 13  1  1  0  0  0
  1  2  1  0  0  0
  1 10  1  0  0  0
  2  3  2  0  0  0
  3  4  1  0  0  0
  3  9  1  0  0  0
  4  5  1  0  0  0
  4  6  2  0  0  0
  5 11  1  0  0  0
  5 12  1  0  0  0
  6  7  1  0  0  0
  7  8  2  0  0  0
  8  9  1  0  0  0
  9 10  2  0  0  0
M  END
> <minimizedAffinity>
-6.80982

$$$$
