CHEMBL482489


 31 34  0  0  0  0  0  0  0  0999 V2000
  -28.9701   -7.1043   -6.4262 N   0  0  0  0  0  0  0  0  0  0  0  0
  -28.8032   -5.7784   -6.7770 C   0  0  0  0  0  0  0  0  0  0  0  0
  -29.2126   -4.8786   -5.8750 N   0  0  0  0  0  0  0  0  0  0  0  0
  -29.0275   -3.5518   -6.1021 C   0  0  0  0  0  0  0  0  0  0  0  0
  -28.4013   -3.1832   -7.3008 C   0  0  0  0  0  0  0  0  0  0  0  0
  -27.9789   -1.9750   -7.9200 C   0  0  0  0  0  0  0  0  0  0  0  0
  -27.3246   -2.3007   -9.0969 C   0  0  0  0  0  0  0  0  0  0  0  0
  -27.4762   -3.6599   -9.2717 N   0  0  0  0  0  0  0  0  0  0  0  0
  -28.0706   -4.2088   -8.1678 C   0  0  0  0  0  0  0  0  0  0  0  0
  -28.2645   -5.5197   -7.9728 N   0  0  0  0  0  0  0  0  0  0  0  0
  -29.6609   -7.1754   -5.6927 H   0  0  0  0  0  0  0  0  0  0  0  0
  -29.0935   -7.6729   -7.2513 H   0  0  0  0  0  0  0  0  0  0  0  0
  -27.1432   -4.2059  -10.0539 H   0  0  0  0  0  0  0  0  0  0  0  0
  -29.3922   -2.6104   -5.1319 N   0  0  0  0  0  0  0  0  0  0  0  0
  -29.5918   -2.9918   -4.2198 H   0  0  0  0  0  0  0  0  0  0  0  0
  -29.2650   -1.2131   -5.1807 C   0  0  0  0  0  0  0  0  0  0  0  0
  -28.1656   -0.5985   -4.5658 C   0  0  0  0  0  0  0  0  0  0  0  0
  -28.0365    0.7936   -4.5539 C   0  0  0  0  0  0  0  0  0  0  0  0
  -29.0054    1.5894   -5.1622 C   0  0  0  0  0  0  0  0  0  0  0  0
  -30.1024    0.9867   -5.7705 C   0  0  0  0  0  0  0  0  0  0  0  0
  -31.4191    2.0557   -6.6087 Br  0  0  0  0  0  0  0  0  0  0  0  0
  -30.2406   -0.3971   -5.7710 C   0  0  0  0  0  0  0  0  0  0  0  0
  -26.5454   -1.4537  -10.0606 C   0  0  0  0  0  0  0  0  0  0  0  0
  -26.3572   -2.1706  -11.4064 C   0  0  0  0  0  0  0  0  0  0  0  0
  -25.1620   -1.6953  -12.1977 C   0  0  0  0  0  0  0  0  0  0  0  0
  -23.9354   -1.5359  -11.5283 C   0  0  0  0  0  0  0  0  0  0  0  0
  -22.8123   -1.0434  -12.1951 C   0  0  0  0  0  0  0  0  0  0  0  0
  -22.8939   -0.7077  -13.5433 C   0  0  0  0  0  0  0  0  0  0  0  0
  -24.0971   -0.8764  -14.2273 C   0  0  0  0  0  0  0  0  0  0  0  0
  -25.2239   -1.3723  -13.5627 C   0  0  0  0  0  0  0  0  0  0  0  0
  -26.6770   -1.5521  -14.4796 Cl  0  0  0  0  0  0  0  0  0  0  0  0
  1  2  1  0  0  0
  1 11  1  0  0  0
  1 12  1  0  0  0
  2  3  1  0  0  0
  2 10  2  0  0  0
  3  4  2  0  0  0
  4 14  1  0  0  0
  4  5  1  0  0  0
 14 16  1  0  0  0
 14 15  1  0  0  0
 16 17  1  0  0  0
 16 22  2  0  0  0
 17 18  2  0  0  0
 18 19  1  0  0  0
 19 20  2  0  0  0
 20 21  1  0  0  0
 20 22  1  0  0  0
  5  6  1  0  0  0
  5  9  2  0  0  0
  6  7  2  0  0  0
  7 23  1  0  0  0
  7  8  1  0  0  0
 23 24  1  0  0  0
 24 25  1  0  0  0
 25 26  1  0  0  0
 25 30  2  0  0  0
 26 27  2  0  0  0
 27 28  1  0  0  0
 28 29  2  0  0  0
 29 30  1  0  0  0
 30 31  1  0  0  0
  8  9  1  0  0  0
  8 13  1  0  0  0
  9 10  1  0  0  0
M  END
> <minimizedAffinity>
-9.65841

$$$$
