CHEMBL191003


 32 34  0  0  0  0  0  0  0  0999 V2000
  -31.5416   -5.7496   -2.8661 N   0  0  0  0  0  0  0  0  0  0  0  0
  -30.4232   -6.0782   -3.5400 C   0  0  0  0  0  0  0  0  0  0  0  0
  -29.9568   -7.2907   -3.7179 N   0  0  0  0  0  0  0  0  0  0  0  0
  -28.8528   -7.1028   -4.4967 C   0  0  0  0  0  0  0  0  0  0  0  0
  -28.6020   -5.8308   -4.8094 N   0  0  0  0  0  0  0  0  0  0  0  0
  -29.6313   -5.1751   -4.2317 N   0  0  0  0  0  0  0  0  0  0  0  0
  -29.7595   -3.7842   -4.3751 C   0  0  0  0  0  0  0  0  0  0  0  0
  -30.4330   -3.1894   -3.5340 O   0  0  0  0  0  0  0  0  0  0  0  0
  -31.9602   -6.4584   -2.2724 H   0  0  0  0  0  0  0  0  0  0  0  0
  -31.6710   -4.7900   -2.5436 H   0  0  0  0  0  0  0  0  0  0  0  0
  -29.1698   -3.0306   -5.5044 C   0  0  0  0  0  0  0  0  0  0  0  0
  -28.2644   -1.9958   -5.2611 C   0  0  0  0  0  0  0  0  0  0  0  0
  -27.9075   -1.6744   -4.0100 F   0  0  0  0  0  0  0  0  0  0  0  0
  -27.6443   -1.3143   -6.3079 C   0  0  0  0  0  0  0  0  0  0  0  0
  -27.8980   -1.6886   -7.6250 C   0  0  0  0  0  0  0  0  0  0  0  0
  -28.7783   -2.7398   -7.8825 C   0  0  0  0  0  0  0  0  0  0  0  0
  -29.4108   -3.4012   -6.8246 C   0  0  0  0  0  0  0  0  0  0  0  0
  -30.2554   -4.3992   -7.1201 F   0  0  0  0  0  0  0  0  0  0  0  0
  -28.1802   -8.1956   -4.8981 N   0  0  0  0  0  0  0  0  0  0  0  0
  -27.6672   -8.6874   -4.1785 H   0  0  0  0  0  0  0  0  0  0  0  0
  -28.1889   -8.8208   -6.1588 C   0  0  0  0  0  0  0  0  0  0  0  0
  -27.3573   -9.9139   -6.4481 C   0  0  0  0  0  0  0  0  0  0  0  0
  -27.2785  -10.4498   -7.7316 C   0  0  0  0  0  0  0  0  0  0  0  0
  -28.0426   -9.8875   -8.7502 C   0  0  0  0  0  0  0  0  0  0  0  0
  -28.8830   -8.8004   -8.4918 C   0  0  0  0  0  0  0  0  0  0  0  0
  -28.9572   -8.2754   -7.1977 C   0  0  0  0  0  0  0  0  0  0  0  0
  -27.8948  -10.5327  -10.3884 S   0  0  0  0  0  0  0  0  0  0  0  0
  -29.2796   -9.9285  -11.1118 N   0  0  0  0  0  0  0  0  0  0  0  0
  -26.7815   -9.8870  -11.0515 O   0  0  0  0  0  0  0  0  0  0  0  0
  -28.0481  -11.9663  -10.3532 O   0  0  0  0  0  0  0  0  0  0  0  0
  -29.0294   -9.3004  -11.8741 H   0  0  0  0  0  0  0  0  0  0  0  0
  -29.8913  -10.6970  -11.3839 H   0  0  0  0  0  0  0  0  0  0  0  0
  1  2  1  0  0  0
  1  9  1  0  0  0
  1 10  1  0  0  0
  2  3  2  0  0  0
  2  6  1  0  0  0
  3  4  1  0  0  0
  4 19  1  0  0  0
  4  5  2  0  0  0
 19 21  1  0  0  0
 19 20  1  0  0  0
 21 22  1  0  0  0
 21 26  2  0  0  0
 22 23  2  0  0  0
 23 24  1  0  0  0
 24 27  1  0  0  0
 24 25  2  0  0  0
 27 28  1  0  0  0
 27 29  2  0  0  0
 27 30  2  0  0  0
 28 31  1  0  0  0
 28 32  1  0  0  0
 25 26  1  0  0  0
  5  6  1  0  0  0
  6  7  1  0  0  0
  7  8  2  0  0  0
  7 11  1  0  0  0
 11 12  1  0  0  0
 11 17  2  0  0  0
 12 13  1  0  0  0
 12 14  2  0  0  0
 14 15  1  0  0  0
 15 16  2  0  0  0
 16 17  1  0  0  0
 17 18  1  0  0  0
M  END
> <minimizedAffinity>
-8.69899

$$$$
