CHEMBL2430263


 33 36  0  0  0  0  0  0  0  0999 V2000
  -28.6704   -8.2705   -5.6707 C   0  0  0  0  0  0  0  0  0  0  0  0
  -28.8133   -7.8406   -4.3568 C   0  0  0  0  0  0  0  0  0  0  0  0
  -28.9029   -8.5921   -3.0744 C   0  0  0  0  0  0  0  0  0  0  0  0
  -28.7921   -6.4508   -4.3578 N   0  0  0  0  0  0  0  0  0  0  0  0
  -28.6179   -5.9786   -5.6348 C   0  0  0  0  0  0  0  0  0  0  0  0
  -28.5490   -7.0851   -6.4591 C   0  0  0  0  0  0  0  0  0  0  0  0
  -28.3593   -7.0384   -7.9312 C   0  0  0  0  0  0  0  0  0  0  0  0
  -28.2773   -5.6447   -8.5259 C   0  0  0  0  0  0  0  0  0  0  0  0
  -28.3273   -4.4382   -7.5851 C   0  0  0  0  0  0  0  0  0  0  0  0
  -28.5071   -4.6176   -6.0759 C   0  0  0  0  0  0  0  0  0  0  0  0
  -28.5321   -3.4951   -5.3059 C   0  0  0  0  0  0  0  0  0  0  0  0
  -28.6802   -3.3759   -3.7960 C   0  0  0  0  0  0  0  0  0  0  0  0
  -28.8098   -4.2589   -2.9676 O   0  0  0  0  0  0  0  0  0  0  0  0
  -28.6419   -2.0200   -3.5135 N   0  0  0  0  0  0  0  0  0  0  0  0
  -28.4884   -1.2558   -4.6609 C   0  0  0  0  0  0  0  0  0  0  0  0
  -28.4192    0.1276   -4.7195 C   0  0  0  0  0  0  0  0  0  0  0  0
  -28.2683    0.7248   -5.9697 C   0  0  0  0  0  0  0  0  0  0  0  0
  -28.1871   -0.0682   -7.1206 C   0  0  0  0  0  0  0  0  0  0  0  0
  -28.2589   -1.4581   -7.0307 C   0  0  0  0  0  0  0  0  0  0  0  0
  -28.4131   -2.0753   -5.7894 C   0  0  0  0  0  0  0  0  0  0  0  0
  -28.8535   -5.8727   -3.5268 H   0  0  0  0  0  0  0  0  0  0  0  0
  -28.7198   -1.6563   -2.5761 H   0  0  0  0  0  0  0  0  0  0  0  0
  -29.7047  -10.1373   -6.8037 N   0  0  0  0  0  0  0  0  0  0  0  0
  -28.5742   -9.6311   -6.2071 C   0  0  0  0  0  0  0  0  0  0  0  0
  -27.5231  -10.2687   -6.1792 O   0  0  0  0  0  0  0  0  0  0  0  0
  -30.4184   -9.4852   -7.1053 H   0  0  0  0  0  0  0  0  0  0  0  0
  -29.6356  -11.4287   -7.4524 C   0  0  0  0  0  0  0  0  0  0  0  0
  -30.0925  -11.3914   -8.9177 C   0  0  0  0  0  0  0  0  0  0  0  0
  -28.9963  -11.4117   -9.9156 N   0  0  0  0  0  0  0  0  0  0  0  0
  -28.9268  -10.1854  -12.1271 C   0  0  0  0  0  0  0  0  0  0  0  0
  -28.8711  -10.1139  -10.6045 C   0  0  0  0  0  0  0  0  0  0  0  0
  -27.7410  -11.8854   -9.3028 C   0  0  0  0  0  0  0  0  0  0  0  0
  -26.5168  -10.9874   -9.4752 C   0  0  0  0  0  0  0  0  0  0  0  0
 30 31  1  0  0  0
 31 29  1  0  0  0
 29 32  1  0  0  0
 29 28  1  0  0  0
 32 33  1  0  0  0
 28 27  1  0  0  0
 27 23  1  0  0  0
 23 24  1  0  0  0
 23 26  1  0  0  0
 24 25  2  0  0  0
 24  1  1  0  0  0
  1  2  2  0  0  0
  1  6  1  0  0  0
  2  3  1  0  0  0
  2  4  1  0  0  0
  4  5  1  0  0  0
  4 21  1  0  0  0
  5  6  2  0  0  0
  5 10  1  0  0  0
  6  7  1  0  0  0
  7  8  1  0  0  0
  8  9  1  0  0  0
  9 10  1  0  0  0
 10 11  2  0  0  0
 11 12  1  0  0  0
 11 20  1  0  0  0
 12 13  2  0  0  0
 12 14  1  0  0  0
 14 15  1  0  0  0
 14 22  1  0  0  0
 15 16  1  0  0  0
 15 20  2  0  0  0
 16 17  2  0  0  0
 17 18  1  0  0  0
 18 19  2  0  0  0
 19 20  1  0  0  0
M  END
> <minimizedAffinity>
-7.13999

$$$$
