CHEMBL1242111


 26 29  0  0  0  0  0  0  0  0999 V2000
  -29.5938   -8.6164   -4.5928 N   0  0  0  0  0  0  0  0  0  0  0  0
  -29.4373   -7.2354   -4.6377 C   0  0  0  0  0  0  0  0  0  0  0  0
  -29.4326   -6.6175   -3.4369 N   0  0  0  0  0  0  0  0  0  0  0  0
  -29.3020   -5.2792   -3.3968 C   0  0  0  0  0  0  0  0  0  0  0  0
  -29.1646   -4.4393   -4.4304 N   0  0  0  0  0  0  0  0  0  0  0  0
  -29.1620   -5.0949   -5.6066 C   0  0  0  0  0  0  0  0  0  0  0  0
  -29.2945   -6.4595   -5.7987 C   0  0  0  0  0  0  0  0  0  0  0  0
  -29.2559   -6.6297   -7.2253 C   0  0  0  0  0  0  0  0  0  0  0  0
  -29.0589   -5.4506   -7.8424 N   0  0  0  0  0  0  0  0  0  0  0  0
  -29.0423   -4.5386   -6.8471 N   0  0  0  0  0  0  0  0  0  0  0  0
  -29.8583   -8.8949   -3.6534 H   0  0  0  0  0  0  0  0  0  0  0  0
  -30.1804   -8.9914   -5.3270 H   0  0  0  0  0  0  0  0  0  0  0  0
  -29.4305   -7.8600   -8.0047 C   0  0  0  0  0  0  0  0  0  0  0  0
  -28.3417   -8.4558   -8.6598 C   0  0  0  0  0  0  0  0  0  0  0  0
  -28.4602   -9.7139   -9.2598 C   0  0  0  0  0  0  0  0  0  0  0  0
  -29.6904  -10.3666   -9.2794 C   0  0  0  0  0  0  0  0  0  0  0  0
  -30.7984   -9.7459   -8.7097 C   0  0  0  0  0  0  0  0  0  0  0  0
  -32.0239  -10.3523   -8.7483 O   0  0  0  0  0  0  0  0  0  0  0  0
  -30.6721   -8.5081   -8.0698 C   0  0  0  0  0  0  0  0  0  0  0  0
  -31.7589   -7.9748   -7.4874 F   0  0  0  0  0  0  0  0  0  0  0  0
  -31.9665  -11.1624   -9.2796 H   0  0  0  0  0  0  0  0  0  0  0  0
  -28.8971   -3.1288   -7.1459 C   0  0  0  0  0  0  0  0  0  0  0  0
  -28.2510   -2.8263   -8.4992 C   0  0  0  0  0  0  0  0  0  0  0  0
  -27.7055   -1.4048   -8.3703 C   0  0  0  0  0  0  0  0  0  0  0  0
  -27.6846   -1.0765   -6.8780 C   0  0  0  0  0  0  0  0  0  0  0  0
  -28.0088   -2.3771   -6.1563 C   0  0  0  0  0  0  0  0  0  0  0  0
  1  2  1  0  0  0
  1 11  1  0  0  0
  1 12  1  0  0  0
  2  3  1  0  0  0
  2  7  2  0  0  0
  3  4  2  0  0  0
  4  5  1  0  0  0
  5  6  2  0  0  0
  6  7  1  0  0  0
  6 10  1  0  0  0
  7  8  1  0  0  0
  8 13  1  0  0  0
  8  9  2  0  0  0
 13 14  1  0  0  0
 13 19  2  0  0  0
 14 15  2  0  0  0
 15 16  1  0  0  0
 16 17  2  0  0  0
 17 18  1  0  0  0
 17 19  1  0  0  0
 18 21  1  0  0  0
 19 20  1  0  0  0
  9 10  1  0  0  0
 10 22  1  0  0  0
 22 23  1  0  0  0
 22 26  1  0  0  0
 23 24  1  0  0  0
 24 25  1  0  0  0
 25 26  1  0  0  0
M  END
> <minimizedAffinity>
-8.43991

$$$$
