CHEMBL3656070


 48 51  0  0  0  0  0  0  0  0999 V2000
  -28.8736   -5.0739   -4.2113 C   0  0  0  0  0  0  0  0  0  0  0  0
  -30.0668   -5.4750   -3.6162 C   0  0  0  0  0  0  0  0  0  0  0  0
  -30.3585   -6.8249   -3.5886 C   0  0  0  0  0  0  0  0  0  0  0  0
  -29.5253   -7.7804   -4.0481 N   0  0  0  0  0  0  0  0  0  0  0  0
  -28.3356   -7.3712   -4.5550 C   0  0  0  0  0  0  0  0  0  0  0  0
  -27.9743   -6.0367   -4.6612 C   0  0  0  0  0  0  0  0  0  0  0  0
  -27.4535   -8.4682   -4.9384 C   0  0  0  0  0  0  0  0  0  0  0  0
  -26.5867   -9.2742   -4.2173 C   0  0  0  0  0  0  0  0  0  0  0  0
  -26.0375  -10.2620   -5.0944 C   0  0  0  0  0  0  0  0  0  0  0  0
  -26.5660   -9.9874   -6.3438 C   0  0  0  0  0  0  0  0  0  0  0  0
  -27.4040   -8.9146   -6.2399 N   0  0  0  0  0  0  0  0  0  0  0  0
  -27.9512   -8.5004   -6.9856 H   0  0  0  0  0  0  0  0  0  0  0  0
  -25.1274  -11.3718   -4.8243 C   0  0  0  0  0  0  0  0  0  0  0  0
  -25.5188  -12.4656   -4.4276 O   0  0  0  0  0  0  0  0  0  0  0  0
  -23.7986  -11.1065   -5.0487 N   0  0  0  0  0  0  0  0  0  0  0  0
  -23.5173  -10.1947   -5.3880 H   0  0  0  0  0  0  0  0  0  0  0  0
  -22.7495  -12.0964   -4.8151 C   0  0  0  0  0  0  0  0  0  0  0  0
  -22.2471  -11.8659   -3.3845 C   0  0  0  0  0  0  0  0  0  0  0  0
  -22.7638  -12.3840   -2.4004 O   0  0  0  0  0  0  0  0  0  0  0  0
  -21.1723  -11.0555   -3.2902 O   0  0  0  0  0  0  0  0  0  0  0  0
  -20.8691  -10.6571   -4.1384 H   0  0  0  0  0  0  0  0  0  0  0  0
  -21.6014  -11.9426   -5.8299 C   0  0  0  0  0  0  0  0  0  0  0  0
  -21.9610  -11.1597   -7.0867 C   0  0  0  0  0  0  0  0  0  0  0  0
  -21.3633   -9.7817   -7.0382 C   0  0  0  0  0  0  0  0  0  0  0  0
  -20.2844   -9.5203   -7.5428 O   0  0  0  0  0  0  0  0  0  0  0  0
  -22.1641   -8.8526   -6.4804 O   0  0  0  0  0  0  0  0  0  0  0  0
  -23.0435   -9.1842   -6.1899 H   0  0  0  0  0  0  0  0  0  0  0  0
  -28.4740   -3.7612   -4.3412 O   0  0  0  0  0  0  0  0  0  0  0  0
  -28.2917   -2.2210   -8.2236 C   0  0  0  0  0  0  0  0  0  0  0  0
  -28.7909   -3.5042   -7.9687 C   0  0  0  0  0  0  0  0  0  0  0  0
  -28.8375   -3.9923   -6.6584 C   0  0  0  0  0  0  0  0  0  0  0  0
  -28.3936   -3.1994   -5.5964 C   0  0  0  0  0  0  0  0  0  0  0  0
  -27.9558   -1.8963   -5.8434 C   0  0  0  0  0  0  0  0  0  0  0  0
  -27.8608   -1.4420   -7.1532 C   0  0  0  0  0  0  0  0  0  0  0  0
  -27.3928   -0.2011   -7.3787 F   0  0  0  0  0  0  0  0  0  0  0  0
  -27.1956   -1.0915  -11.4964 N   0  0  0  0  0  0  0  0  0  0  0  0
  -27.0467   -1.6238  -10.2296 C   0  0  0  0  0  0  0  0  0  0  0  0
  -25.9933   -2.0449   -9.7543 O   0  0  0  0  0  0  0  0  0  0  0  0
  -28.2458   -1.6710   -9.5318 N   0  0  0  0  0  0  0  0  0  0  0  0
  -28.0407   -0.5633  -11.6700 H   0  0  0  0  0  0  0  0  0  0  0  0
  -29.0545   -1.8727  -10.1076 H   0  0  0  0  0  0  0  0  0  0  0  0
  -22.5905    0.1576  -12.8726 C   0  0  0  0  0  0  0  0  0  0  0  0
  -23.9334   -0.4380  -13.1854 C   0  0  0  0  0  0  0  0  0  0  0  0
  -24.1827   -0.9421  -14.4641 C   0  0  0  0  0  0  0  0  0  0  0  0
  -25.4224   -1.4931  -14.7704 C   0  0  0  0  0  0  0  0  0  0  0  0
  -26.4194   -1.5446  -13.7969 C   0  0  0  0  0  0  0  0  0  0  0  0
  -26.1985   -1.0613  -12.5048 C   0  0  0  0  0  0  0  0  0  0  0  0
  -24.9465   -0.4997  -12.2066 C   0  0  0  0  0  0  0  0  0  0  0  0
 42 43  1  0  0  0
 43 44  1  0  0  0
 43 48  2  0  0  0
 44 45  2  0  0  0
 45 46  1  0  0  0
 46 47  2  0  0  0
 47 36  1  0  0  0
 47 48  1  0  0  0
 36 37  1  0  0  0
 36 40  1  0  0  0
 37 38  2  0  0  0
 37 39  1  0  0  0
 39 29  1  0  0  0
 39 41  1  0  0  0
 29 30  1  0  0  0
 29 34  2  0  0  0
 30 31  2  0  0  0
 31 32  1  0  0  0
 32 28  1  0  0  0
 32 33  2  0  0  0
 28  1  1  0  0  0
  1  2  1  0  0  0
  1  6  2  0  0  0
  2  3  2  0  0  0
  3  4  1  0  0  0
  4  5  2  0  0  0
  5  7  1  0  0  0
  5  6  1  0  0  0
  7  8  2  0  0  0
  7 11  1  0  0  0
  8  9  1  0  0  0
  9 13  1  0  0  0
  9 10  2  0  0  0
 13 14  2  0  0  0
 13 15  1  0  0  0
 15 17  1  0  0  0
 15 16  1  0  0  0
 17 22  1  0  0  0
 17 18  1  0  0  0
 22 23  1  0  0  0
 23 24  1  0  0  0
 24 25  2  0  0  0
 24 26  1  0  0  0
 26 27  1  0  0  0
 18 19  2  0  0  0
 18 20  1  0  0  0
 20 21  1  0  0  0
 10 11  1  0  0  0
 11 12  1  0  0  0
 33 34  1  0  0  0
 34 35  1  0  0  0
M  END
> <minimizedAffinity>
-10.79056

$$$$
