CHEMBL4094157


 29 32  0  0  0  0  0  0  0  0999 V2000
  -21.8022    3.2508  -14.7491 C   0  0  0  0  0  0  0  0  0  0  0  0
  -20.3833    2.7672  -14.8464 C   0  0  0  0  0  0  0  0  0  0  0  0
  -19.3988    3.5745  -15.4413 C   0  0  0  0  0  0  0  0  0  0  0  0
  -18.0897    3.0767  -15.5150 C   0  0  0  0  0  0  0  0  0  0  0  0
  -16.9523    3.6427  -16.0470 N   0  0  0  0  0  0  0  0  0  0  0  0
  -15.8916    2.7929  -15.9139 C   0  0  0  0  0  0  0  0  0  0  0  0
  -14.6535    3.0491  -16.3570 N   0  0  0  0  0  0  0  0  0  0  0  0
  -13.8140    2.0340  -16.1259 C   0  0  0  0  0  0  0  0  0  0  0  0
  -12.5215    2.1797  -16.5931 N   0  0  0  0  0  0  0  0  0  0  0  0
  -14.0910    0.8960  -15.4668 N   0  0  0  0  0  0  0  0  0  0  0  0
  -15.3518    0.6614  -15.0314 C   0  0  0  0  0  0  0  0  0  0  0  0
  -16.3253    1.6512  -15.2673 C   0  0  0  0  0  0  0  0  0  0  0  0
  -17.7284    1.8192  -15.0230 C   0  0  0  0  0  0  0  0  0  0  0  0
  -18.7325    1.0225  -14.4324 C   0  0  0  0  0  0  0  0  0  0  0  0
  -20.0383    1.5101  -14.3509 C   0  0  0  0  0  0  0  0  0  0  0  0
  -21.0138    0.7422  -13.7744 O   0  0  0  0  0  0  0  0  0  0  0  0
  -16.8959    4.5462  -16.4923 H   0  0  0  0  0  0  0  0  0  0  0  0
  -12.2920    3.1569  -16.6922 H   0  0  0  0  0  0  0  0  0  0  0  0
  -11.8934    1.5922  -16.0654 H   0  0  0  0  0  0  0  0  0  0  0  0
  -20.6256   -0.1048  -13.4968 H   0  0  0  0  0  0  0  0  0  0  0  0
  -15.6784   -0.5405  -14.4303 N   0  0  0  0  0  0  0  0  0  0  0  0
  -16.5654   -0.9274  -14.7071 H   0  0  0  0  0  0  0  0  0  0  0  0
  -15.3468   -0.7827  -13.0440 C   0  0  0  0  0  0  0  0  0  0  0  0
  -15.7624   -2.1990  -12.7079 C   0  0  0  0  0  0  0  0  0  0  0  0
  -15.7888   -2.6069  -11.3641 C   0  0  0  0  0  0  0  0  0  0  0  0
  -16.1573   -3.9066  -11.0189 C   0  0  0  0  0  0  0  0  0  0  0  0
  -16.5055   -4.8160  -12.0148 C   0  0  0  0  0  0  0  0  0  0  0  0
  -16.4783   -4.4277  -13.3535 C   0  0  0  0  0  0  0  0  0  0  0  0
  -16.1060   -3.1251  -13.7019 C   0  0  0  0  0  0  0  0  0  0  0  0
  1  2  1  0  0  0
  2  3  1  0  0  0
  2 15  2  0  0  0
  3  4  2  0  0  0
  4  5  1  0  0  0
  4 13  1  0  0  0
  5  6  1  0  0  0
  5 17  1  0  0  0
  6  7  1  0  0  0
  6 12  2  0  0  0
  7  8  2  0  0  0
  8  9  1  0  0  0
  8 10  1  0  0  0
  9 18  1  0  0  0
  9 19  1  0  0  0
 10 11  2  0  0  0
 11 21  1  0  0  0
 11 12  1  0  0  0
 21 23  1  0  0  0
 21 22  1  0  0  0
 23 24  1  0  0  0
 24 25  1  0  0  0
 24 29  2  0  0  0
 25 26  2  0  0  0
 26 27  1  0  0  0
 27 28  2  0  0  0
 28 29  1  0  0  0
 12 13  1  0  0  0
 13 14  2  0  0  0
 14 15  1  0  0  0
 15 16  1  0  0  0
 16 20  1  0  0  0
M  END
> <minimizedAffinity>
-9.06030

$$$$
