CHEMBL3676386


 38 40  0  0  0  0  0  0  0  0999 V2000
  -29.7745   -5.2204   -7.0672 C   0  0  0  0  0  0  0  0  0  0  0  0
  -29.1353   -4.3586   -7.9572 C   0  0  0  0  0  0  0  0  0  0  0  0
  -28.6105   -3.1254   -7.5092 C   0  0  0  0  0  0  0  0  0  0  0  0
  -28.0150   -2.1654   -8.3411 C   0  0  0  0  0  0  0  0  0  0  0  0
  -27.5085   -1.0169   -7.8609 N   0  0  0  0  0  0  0  0  0  0  0  0
  -27.6323   -0.8131   -6.5468 C   0  0  0  0  0  0  0  0  0  0  0  0
  -28.1949   -1.6479   -5.6681 N   0  0  0  0  0  0  0  0  0  0  0  0
  -28.6676   -2.7977   -6.1490 C   0  0  0  0  0  0  0  0  0  0  0  0
  -29.2539   -3.7081   -5.2716 C   0  0  0  0  0  0  0  0  0  0  0  0
  -29.7956   -4.9295   -5.7003 C   0  0  0  0  0  0  0  0  0  0  0  0
  -30.0114   -7.5310   -7.8160 C   0  0  0  0  0  0  0  0  0  0  0  0
  -30.7534   -8.5033   -7.9387 O   0  0  0  0  0  0  0  0  0  0  0  0
  -30.5427   -6.2745   -7.5955 N   0  0  0  0  0  0  0  0  0  0  0  0
  -31.4819   -6.3790   -7.2268 H   0  0  0  0  0  0  0  0  0  0  0  0
  -27.9538   -8.4522   -8.7451 C   0  0  0  0  0  0  0  0  0  0  0  0
  -28.5323   -7.6533   -7.8406 C   0  0  0  0  0  0  0  0  0  0  0  0
  -27.9867   -2.3892   -9.7348 N   0  0  0  0  0  0  0  0  0  0  0  0
  -28.9221   -2.5382  -10.1074 H   0  0  0  0  0  0  0  0  0  0  0  0
  -27.0957   -1.8486  -10.6839 C   0  0  0  0  0  0  0  0  0  0  0  0
  -25.7914   -1.4815  -10.3369 C   0  0  0  0  0  0  0  0  0  0  0  0
  -24.8532   -1.1653  -11.3215 C   0  0  0  0  0  0  0  0  0  0  0  0
  -25.2099   -1.2000  -12.6725 C   0  0  0  0  0  0  0  0  0  0  0  0
  -23.8311   -0.8910  -13.9415 Br  0  0  0  0  0  0  0  0  0  0  0  0
  -26.5251   -1.4994  -13.0394 C   0  0  0  0  0  0  0  0  0  0  0  0
  -27.0468   -1.5145  -14.6876 Cl  0  0  0  0  0  0  0  0  0  0  0  0
  -27.4492   -1.8269  -12.0428 C   0  0  0  0  0  0  0  0  0  0  0  0
  -28.7111   -2.1561  -12.3749 F   0  0  0  0  0  0  0  0  0  0  0  0
  -30.3373   -5.6976   -4.7007 O   0  0  0  0  0  0  0  0  0  0  0  0
  -29.3968   -6.2258   -3.7608 C   0  0  0  0  0  0  0  0  0  0  0  0
  -28.9782   -7.6467   -4.1540 C   0  0  0  0  0  0  0  0  0  0  0  0
  -27.5206   -7.7460   -4.1793 N   0  0  0  0  0  0  0  0  0  0  0  0
  -27.0062   -7.0169   -3.7028 H   0  0  0  0  0  0  0  0  0  0  0  0
  -26.7948   -8.8297   -4.5804 C   0  0  0  0  0  0  0  0  0  0  0  0
  -27.4054  -10.2516   -5.1917 S   0  0  0  0  0  0  0  0  0  0  0  0
  -25.4433   -8.7136   -4.4096 N   0  0  0  0  0  0  0  0  0  0  0  0
  -25.0806   -7.8025   -4.6710 H   0  0  0  0  0  0  0  0  0  0  0  0
  -24.5128   -9.8303   -4.4145 C   0  0  0  0  0  0  0  0  0  0  0  0
  -23.5983   -9.7966   -5.6249 C   0  0  0  0  0  0  0  0  0  0  0  0
 15 16  2  0  0  0
 16 11  1  0  0  0
 11 12  2  0  0  0
 11 13  1  0  0  0
 13  1  1  0  0  0
 13 14  1  0  0  0
  1  2  1  0  0  0
  1 10  2  0  0  0
  2  3  2  0  0  0
  3  4  1  0  0  0
  3  8  1  0  0  0
  4 17  1  0  0  0
  4  5  2  0  0  0
 17 19  1  0  0  0
 17 18  1  0  0  0
 19 20  1  0  0  0
 19 26  2  0  0  0
 20 21  2  0  0  0
 21 22  1  0  0  0
 22 23  1  0  0  0
 22 24  2  0  0  0
 24 25  1  0  0  0
 24 26  1  0  0  0
 26 27  1  0  0  0
  5  6  1  0  0  0
  6  7  2  0  0  0
  7  8  1  0  0  0
  8  9  2  0  0  0
  9 10  1  0  0  0
 10 28  1  0  0  0
 28 29  1  0  0  0
 29 30  1  0  0  0
 30 31  1  0  0  0
 31 33  1  0  0  0
 31 32  1  0  0  0
 33 34  2  0  0  0
 33 35  1  0  0  0
 35 37  1  0  0  0
 35 36  1  0  0  0
 37 38  1  0  0  0
M  END
> <minimizedAffinity>
-8.49467

$$$$
