CHEMBL3982399


 40 44  0  0  0  0  0  0  0  0999 V2000
  -15.4974    2.4275  -16.1289 N   0  0  0  0  0  0  0  0  0  0  0  0
  -16.8732    2.3382  -15.6715 C   0  0  0  0  0  0  0  0  0  0  0  0
  -17.2475    1.1165  -15.2306 C   0  0  0  0  0  0  0  0  0  0  0  0
  -18.5259    1.0335  -14.8258 C   0  0  0  0  0  0  0  0  0  0  0  0
  -19.5036    1.9991  -14.9179 C   0  0  0  0  0  0  0  0  0  0  0  0
  -20.4599    1.2664  -15.2848 N   0  0  0  0  0  0  0  0  0  0  0  0
  -21.1416    0.7983  -14.2954 C   0  0  0  0  0  0  0  0  0  0  0  0
  -22.0610    1.6472  -13.9865 C   0  0  0  0  0  0  0  0  0  0  0  0
  -21.3952    3.0858  -14.4786 N   0  0  0  0  0  0  0  0  0  0  0  0
  -19.7200    3.2719  -15.0694 C   0  0  0  0  0  0  0  0  0  0  0  0
  -18.0313    3.4043  -15.6194 C   0  0  0  0  0  0  0  0  0  0  0  0
  -23.4013    0.5227  -13.4795 C   0  0  0  0  0  0  0  0  0  0  0  0
  -24.2028   -0.6953  -14.1997 C   0  0  0  0  0  0  0  0  0  0  0  0
  -25.0919   -1.4016  -13.4399 N   0  0  0  0  0  0  0  0  0  0  0  0
  -25.0107   -0.8452  -12.2182 N   0  0  0  0  0  0  0  0  0  0  0  0
  -25.8107   -1.4108  -11.0779 C   0  0  0  0  0  0  0  0  0  0  0  0
  -24.0367    0.2383  -12.2478 C   0  0  0  0  0  0  0  0  0  0  0  0
  -13.1351    5.4225  -16.0549 C   0  0  0  0  0  0  0  0  0  0  0  0
  -13.2212    5.8218  -17.3495 C   0  0  0  0  0  0  0  0  0  0  0  0
  -14.0875    5.1601  -18.2180 C   0  0  0  0  0  0  0  0  0  0  0  0
  -14.8872    4.1006  -17.7853 C   0  0  0  0  0  0  0  0  0  0  0  0
  -14.8053    3.6169  -16.4975 C   0  0  0  0  0  0  0  0  0  0  0  0
  -14.0466    4.4486  -15.6468 C   0  0  0  0  0  0  0  0  0  0  0  0
  -11.9426    7.3142  -15.2864 C   0  0  0  0  0  0  0  0  0  0  0  0
  -12.2774    5.9307  -15.1209 O   0  0  0  0  0  0  0  0  0  0  0  0
  -14.1611    5.4540  -19.5495 O   0  0  0  0  0  0  0  0  0  0  0  0
  -14.7050    6.7430  -19.8117 C   0  0  0  0  0  0  0  0  0  0  0  0
  -14.9779    1.0844  -16.7340 C   0  0  0  0  0  0  0  0  0  0  0  0
  -14.5611    0.1812  -15.5847 C   0  0  0  0  0  0  0  0  0  0  0  0
  -14.2036   -0.5936  -14.5989 C   0  0  0  0  0  0  0  0  0  0  0  0
  -13.8149   -1.4854  -13.4741 C   0  0  0  0  0  0  0  0  0  0  0  0
  -12.5053   -1.9096  -13.2971 C   0  0  0  0  0  0  0  0  0  0  0  0
  -12.2116   -2.7317  -12.2140 C   0  0  0  0  0  0  0  0  0  0  0  0
  -10.9142   -3.1709  -11.9971 N   0  0  0  0  0  0  0  0  0  0  0  0
  -13.1635   -3.1202  -11.3520 N   0  0  0  0  0  0  0  0  0  0  0  0
  -14.4247   -2.6764  -11.5812 C   0  0  0  0  0  0  0  0  0  0  0  0
  -15.4956   -3.1093  -10.6024 C   0  0  0  0  0  0  0  0  0  0  0  0
  -14.7912   -1.8646  -12.6143 N   0  0  0  0  0  0  0  0  0  0  0  0
  -10.1504   -2.9153  -12.6028 H   0  0  0  0  0  0  0  0  0  0  0  0
  -10.7166   -3.7613  -11.1990 H   0  0  0  0  0  0  0  0  0  0  0  0
 24 25  1  0  0  0
 25 18  1  0  0  0
 18 19  1  0  0  0
 18 23  2  0  0  0
 19 20  2  0  0  0
 20 26  1  0  0  0
 20 21  1  0  0  0
 26 27  1  0  0  0
 21 22  2  0  0  0
 22  1  1  0  0  0
 22 23  1  0  0  0
  1 28  1  0  0  0
  1  2  1  0  0  0
 28 29  1  0  0  0
 29 30  3  0  0  0
 30 31  1  0  0  0
 31 32  1  0  0  0
 31 38  2  0  0  0
 32 33  2  0  0  0
 33 34  1  0  0  0
 33 35  1  0  0  0
 34 39  1  0  0  0
 34 40  1  0  0  0
 35 36  2  0  0  0
 36 37  1  0  0  0
 36 38  1  0  0  0
  2  3  1  0  0  0
  2 11  2  0  0  0
  3  4  2  0  0  0
  4  5  1  0  0  0
  5  6  1  0  0  0
  5 10  2  0  0  0
  6  7  2  0  0  0
  7  8  1  0  0  0
  8 12  1  0  0  0
  8  9  2  0  0  0
 12 13  1  0  0  0
 12 17  2  0  0  0
 13 14  2  0  0  0
 14 15  1  0  0  0
 15 16  1  0  0  0
 15 17  1  0  0  0
  9 10  1  0  0  0
 10 11  1  0  0  0
M  END
> <minimizedAffinity>
-9.97144

$$$$
