CHEMBL3912505


 40 45  0  0  0  0  0  0  0  0999 V2000
  -17.1342    1.9162  -15.4982 N   0  0  0  0  0  0  0  0  0  0  0  0
  -18.5933    1.7697  -15.5180 C   0  0  0  0  0  0  0  0  0  0  0  0
  -19.2755    2.9612  -15.7075 C   0  0  0  0  0  0  0  0  0  0  0  0
  -20.5321    3.1292  -15.1425 C   0  0  0  0  0  0  0  0  0  0  0  0
  -21.2011    2.0873  -14.5584 C   0  0  0  0  0  0  0  0  0  0  0  0
  -22.3021    2.4861  -13.9008 N   0  0  0  0  0  0  0  0  0  0  0  0
  -23.1266    1.5208  -13.4950 C   0  0  0  0  0  0  0  0  0  0  0  0
  -22.9222    0.1970  -13.8216 C   0  0  0  0  0  0  0  0  0  0  0  0
  -21.7277   -0.2249  -14.3755 N   0  0  0  0  0  0  0  0  0  0  0  0
  -20.7734    0.7573  -14.7037 C   0  0  0  0  0  0  0  0  0  0  0  0
  -19.3704    0.6388  -15.1297 C   0  0  0  0  0  0  0  0  0  0  0  0
  -24.1199   -0.6422  -13.7126 C   0  0  0  0  0  0  0  0  0  0  0  0
  -24.9692   -1.1338  -14.7438 C   0  0  0  0  0  0  0  0  0  0  0  0
  -26.1492   -1.5802  -14.2906 N   0  0  0  0  0  0  0  0  0  0  0  0
  -26.0823   -1.3579  -12.9678 N   0  0  0  0  0  0  0  0  0  0  0  0
  -27.1082   -1.8625  -12.0831 C   0  0  0  0  0  0  0  0  0  0  0  0
  -24.9529   -0.6756  -12.6004 C   0  0  0  0  0  0  0  0  0  0  0  0
  -13.9939   -0.1228  -15.3511 C   0  0  0  0  0  0  0  0  0  0  0  0
  -14.2669   -0.9489  -14.2662 C   0  0  0  0  0  0  0  0  0  0  0  0
  -15.4766   -0.8117  -13.5702 C   0  0  0  0  0  0  0  0  0  0  0  0
  -16.4281    0.1246  -14.0145 C   0  0  0  0  0  0  0  0  0  0  0  0
  -16.1558    1.0063  -15.0784 C   0  0  0  0  0  0  0  0  0  0  0  0
  -14.9262    0.8520  -15.7303 C   0  0  0  0  0  0  0  0  0  0  0  0
  -15.6490   -1.6857  -12.3747 C   0  0  0  0  0  0  0  0  0  0  0  0
  -15.7458   -1.1643  -11.2657 O   0  0  0  0  0  0  0  0  0  0  0  0
  -15.8432   -3.0576  -12.5539 N   0  0  0  0  0  0  0  0  0  0  0  0
  -15.7697   -3.8473  -13.7703 C   0  0  0  0  0  0  0  0  0  0  0  0
  -16.7853   -4.9510  -13.5658 C   0  0  0  0  0  0  0  0  0  0  0  0
  -16.7065   -5.2238  -12.0714 C   0  0  0  0  0  0  0  0  0  0  0  0
  -16.3572   -3.8714  -11.4549 C   0  0  0  0  0  0  0  0  0  0  0  0
  -13.0512   -0.4248  -17.5102 C   0  0  0  0  0  0  0  0  0  0  0  0
  -12.8654   -0.1658  -16.1237 O   0  0  0  0  0  0  0  0  0  0  0  0
  -16.8149    3.3893  -15.5576 C   0  0  0  0  0  0  0  0  0  0  0  0
  -16.0826    4.0717  -16.7167 C   0  0  0  0  0  0  0  0  0  0  0  0
  -14.6278    4.5443  -16.5338 C   0  0  0  0  0  0  0  0  0  0  0  0
  -13.9945    4.7433  -17.8607 N   0  0  0  0  0  0  0  0  0  0  0  0
  -13.2287    5.9895  -18.0140 C   0  0  0  0  0  0  0  0  0  0  0  0
  -14.1962    6.9783  -18.6254 C   0  0  0  0  0  0  0  0  0  0  0  0
  -14.9480    6.1167  -19.6146 C   0  0  0  0  0  0  0  0  0  0  0  0
  -14.9514    4.7234  -18.9835 C   0  0  0  0  0  0  0  0  0  0  0  0
 31 32  1  0  0  0
 32 18  1  0  0  0
 18 19  1  0  0  0
 18 23  2  0  0  0
 19 20  2  0  0  0
 20 24  1  0  0  0
 20 21  1  0  0  0
 24 25  2  0  0  0
 24 26  1  0  0  0
 26 27  1  0  0  0
 26 30  1  0  0  0
 27 28  1  0  0  0
 28 29  1  0  0  0
 29 30  1  0  0  0
 21 22  2  0  0  0
 22  1  1  0  0  0
 22 23  1  0  0  0
  1 33  1  0  0  0
  1  2  1  0  0  0
 33 34  1  0  0  0
 34 35  1  0  0  0
 35 36  1  0  0  0
 36 37  1  0  0  0
 36 40  1  0  0  0
 37 38  1  0  0  0
 38 39  1  0  0  0
 39 40  1  0  0  0
  2  3  1  0  0  0
  2 11  2  0  0  0
  3  4  2  0  0  0
  4  5  1  0  0  0
  5  6  1  0  0  0
  5 10  2  0  0  0
  6  7  2  0  0  0
  7  8  1  0  0  0
  8 12  1  0  0  0
  8  9  2  0  0  0
 12 13  1  0  0  0
 12 17  2  0  0  0
 13 14  2  0  0  0
 14 15  1  0  0  0
 15 16  1  0  0  0
 15 17  1  0  0  0
  9 10  1  0  0  0
 10 11  1  0  0  0
M  END
> <minimizedAffinity>
-10.23834

$$$$
