CHEMBL484677


 23 25  0  0  0  0  0  0  0  0999 V2000
  -28.8985   -5.9589   -7.0548 N   0  0  0  0  0  0  0  0  0  0  0  0
  -29.2687   -4.6359   -7.1670 C   0  0  0  0  0  0  0  0  0  0  0  0
  -30.2834   -4.1982   -7.7015 O   0  0  0  0  0  0  0  0  0  0  0  0
  -28.0495   -6.1764   -6.5308 H   0  0  0  0  0  0  0  0  0  0  0  0
  -28.4119   -3.6265   -6.4990 C   0  0  0  0  0  0  0  0  0  0  0  0
  -28.1509   -2.4257   -7.1747 C   0  0  0  0  0  0  0  0  0  0  0  0
  -27.8919   -1.2420   -6.4544 C   0  0  0  0  0  0  0  0  0  0  0  0
  -28.0276   -1.2226   -5.0647 C   0  0  0  0  0  0  0  0  0  0  0  0
  -28.3129   -2.4159   -4.4256 C   0  0  0  0  0  0  0  0  0  0  0  0
  -28.3288   -3.6160   -5.1269 C   0  0  0  0  0  0  0  0  0  0  0  0
  -28.6176   -4.6747   -4.1696 C   0  0  0  0  0  0  0  0  0  0  0  0
  -28.3118   -5.8349   -4.3055 O   0  0  0  0  0  0  0  0  0  0  0  0
  -29.2179   -4.0705   -3.0735 N   0  0  0  0  0  0  0  0  0  0  0  0
  -28.8639   -2.6546   -3.0586 C   0  0  0  0  0  0  0  0  0  0  0  0
  -30.2156   -4.2389   -3.1314 H   0  0  0  0  0  0  0  0  0  0  0  0
  -31.2603   -9.2840   -8.1538 C   0  0  0  0  0  0  0  0  0  0  0  0
  -29.9977   -9.1248   -8.7161 C   0  0  0  0  0  0  0  0  0  0  0  0
  -29.2057   -8.0264   -8.3718 C   0  0  0  0  0  0  0  0  0  0  0  0
  -29.6589   -7.0765   -7.4551 C   0  0  0  0  0  0  0  0  0  0  0  0
  -30.9346   -7.2247   -6.9092 C   0  0  0  0  0  0  0  0  0  0  0  0
  -31.7287   -8.3306   -7.2490 C   0  0  0  0  0  0  0  0  0  0  0  0
  -31.5525  -11.6177   -8.4509 C   0  0  0  0  0  0  0  0  0  0  0  0
  -32.1223  -10.3134   -8.4146 O   0  0  0  0  0  0  0  0  0  0  0  0
 22 23  1  0  0  0
 23 16  1  0  0  0
 16 17  1  0  0  0
 16 21  2  0  0  0
 17 18  2  0  0  0
 18 19  1  0  0  0
 19  1  1  0  0  0
 19 20  2  0  0  0
  1  2  1  0  0  0
  1  4  1  0  0  0
  2  3  2  0  0  0
  2  5  1  0  0  0
  5  6  1  0  0  0
  5 10  2  0  0  0
  6  7  2  0  0  0
  7  8  1  0  0  0
  8  9  2  0  0  0
  9 10  1  0  0  0
  9 14  1  0  0  0
 10 11  1  0  0  0
 11 12  2  0  0  0
 11 13  1  0  0  0
 13 14  1  0  0  0
 13 15  1  0  0  0
 20 21  1  0  0  0
M  END
> <minimizedAffinity>
-7.85565

$$$$
