CHEMBL3323601


 29 33  0  0  0  0  0  0  0  0999 V2000
  -23.4419    0.1760  -13.4341 C   0  0  0  0  0  0  0  0  0  0  0  0
  -24.4717   -0.2855  -14.1215 N   0  0  0  0  0  0  0  0  0  0  0  0
  -25.2612   -0.9534  -13.2202 C   0  0  0  0  0  0  0  0  0  0  0  0
  -26.4775   -1.6218  -13.4069 C   0  0  0  0  0  0  0  0  0  0  0  0
  -27.0745   -2.2439  -12.2997 C   0  0  0  0  0  0  0  0  0  0  0  0
  -26.4880   -2.1941  -11.0256 C   0  0  0  0  0  0  0  0  0  0  0  0
  -25.2587   -1.5426  -10.8424 C   0  0  0  0  0  0  0  0  0  0  0  0
  -24.6923   -0.9263  -11.9563 C   0  0  0  0  0  0  0  0  0  0  0  0
  -23.5400   -0.2082  -12.1178 N   0  0  0  0  0  0  0  0  0  0  0  0
  -22.8641   -0.0109  -11.3963 H   0  0  0  0  0  0  0  0  0  0  0  0
  -19.2054    3.2230  -15.4417 F   0  0  0  0  0  0  0  0  0  0  0  0
  -20.2172    2.4862  -14.9615 C   0  0  0  0  0  0  0  0  0  0  0  0
  -20.1469    1.1010  -15.0361 C   0  0  0  0  0  0  0  0  0  0  0  0
  -21.2010    0.3316  -14.5380 C   0  0  0  0  0  0  0  0  0  0  0  0
  -22.3234    0.9516  -13.9658 C   0  0  0  0  0  0  0  0  0  0  0  0
  -22.3663    2.3524  -13.8947 C   0  0  0  0  0  0  0  0  0  0  0  0
  -21.3149    3.1207  -14.3971 C   0  0  0  0  0  0  0  0  0  0  0  0
  -27.1222   -2.8804   -9.9623 N   0  0  0  0  0  0  0  0  0  0  0  0
  -26.7205   -3.8067   -9.8753 H   0  0  0  0  0  0  0  0  0  0  0  0
  -27.5872   -2.3387   -8.7328 C   0  0  0  0  0  0  0  0  0  0  0  0
  -27.4217   -0.9711   -8.4833 C   0  0  0  0  0  0  0  0  0  0  0  0
  -27.9487   -0.4297   -7.3313 C   0  0  0  0  0  0  0  0  0  0  0  0
  -28.6492   -1.1381   -6.4287 N   0  0  0  0  0  0  0  0  0  0  0  0
  -28.8444   -2.4440   -6.6655 C   0  0  0  0  0  0  0  0  0  0  0  0
  -29.6062   -3.1520   -5.7465 C   0  0  0  0  0  0  0  0  0  0  0  0
  -29.8660   -4.5147   -5.8934 C   0  0  0  0  0  0  0  0  0  0  0  0
  -29.3380   -5.1984   -6.9768 C   0  0  0  0  0  0  0  0  0  0  0  0
  -28.5740   -4.5099   -7.9195 C   0  0  0  0  0  0  0  0  0  0  0  0
  -28.3261   -3.1170   -7.7981 C   0  0  0  0  0  0  0  0  0  0  0  0
 11 12  1  0  0  0
 12 13  1  0  0  0
 12 17  2  0  0  0
 13 14  2  0  0  0
 14 15  1  0  0  0
 15  1  1  0  0  0
 15 16  2  0  0  0
  1  2  2  0  0  0
  1  9  1  0  0  0
  2  3  1  0  0  0
  3  4  1  0  0  0
  3  8  2  0  0  0
  4  5  2  0  0  0
  5  6  1  0  0  0
  6 18  1  0  0  0
  6  7  2  0  0  0
 18 20  1  0  0  0
 18 19  1  0  0  0
 20 21  1  0  0  0
 20 29  2  0  0  0
 21 22  2  0  0  0
 22 23  1  0  0  0
 23 24  2  0  0  0
 24 25  1  0  0  0
 24 29  1  0  0  0
 25 26  2  0  0  0
 26 27  1  0  0  0
 27 28  2  0  0  0
 28 29  1  0  0  0
  7  8  1  0  0  0
  8  9  1  0  0  0
  9 10  1  0  0  0
 16 17  1  0  0  0
M  END
> <minimizedAffinity>
-10.77980

$$$$
