CHEMBL3968030


 33 36  0  0  0  0  0  0  0  0999 V2000
  -13.5198   -1.1704  -13.1348 C   0  0  0  0  0  0  0  0  0  0  0  0
  -13.0433    0.0739  -13.6043 C   0  0  0  0  0  0  0  0  0  0  0  0
  -13.7810    0.8999  -14.4428 C   0  0  0  0  0  0  0  0  0  0  0  0
  -13.2728    2.0688  -14.8537 N   0  0  0  0  0  0  0  0  0  0  0  0
  -14.0450    2.8190  -15.6390 C   0  0  0  0  0  0  0  0  0  0  0  0
  -15.2873    2.5278  -16.0368 N   0  0  0  0  0  0  0  0  0  0  0  0
  -15.7987    1.3581  -15.6155 C   0  0  0  0  0  0  0  0  0  0  0  0
  -15.0507    0.4692  -14.8246 C   0  0  0  0  0  0  0  0  0  0  0  0
  -15.5219   -0.7915  -14.3947 C   0  0  0  0  0  0  0  0  0  0  0  0
  -14.7979   -1.5952  -13.5150 C   0  0  0  0  0  0  0  0  0  0  0  0
  -17.1437    1.0028  -15.9263 N   0  0  0  0  0  0  0  0  0  0  0  0
  -17.2135   -0.0092  -15.8849 H   0  0  0  0  0  0  0  0  0  0  0  0
  -18.3350    1.5941  -15.4628 C   0  0  0  0  0  0  0  0  0  0  0  0
  -18.5377    2.9787  -15.4611 C   0  0  0  0  0  0  0  0  0  0  0  0
  -19.7386    3.5278  -14.9794 C   0  0  0  0  0  0  0  0  0  0  0  0
  -20.7544    2.6888  -14.5370 C   0  0  0  0  0  0  0  0  0  0  0  0
  -22.1901    3.4330  -13.9171 Cl  0  0  0  0  0  0  0  0  0  0  0  0
  -20.6027    1.3000  -14.6121 C   0  0  0  0  0  0  0  0  0  0  0  0
  -21.8395    0.2033  -14.1285 Cl  0  0  0  0  0  0  0  0  0  0  0  0
  -19.4011    0.7687  -15.0908 C   0  0  0  0  0  0  0  0  0  0  0  0
  -15.4636   -2.7632  -13.2634 O   0  0  0  0  0  0  0  0  0  0  0  0
  -15.9497   -3.0380  -11.9563 C   0  0  0  0  0  0  0  0  0  0  0  0
  -12.5833   -1.8220  -12.3729 O   0  0  0  0  0  0  0  0  0  0  0  0
  -11.9929   -2.9622  -12.9831 C   0  0  0  0  0  0  0  0  0  0  0  0
  -13.1476   -5.1655  -12.8577 N   0  0  0  0  0  0  0  0  0  0  0  0
  -13.3483   -6.3523  -12.0053 C   0  0  0  0  0  0  0  0  0  0  0  0
  -13.7820   -5.9711  -10.5705 C   0  0  0  0  0  0  0  0  0  0  0  0
  -12.8833   -5.0412   -9.8621 N   0  0  0  0  0  0  0  0  0  0  0  0
  -11.6487   -5.6868   -9.4261 C   0  0  0  0  0  0  0  0  0  0  0  0
  -12.6021   -3.8876  -10.7373 C   0  0  0  0  0  0  0  0  0  0  0  0
  -12.1595   -4.2565  -12.1848 C   0  0  0  0  0  0  0  0  0  0  0  0
  -11.8461   -6.7380  -14.3574 C   0  0  0  0  0  0  0  0  0  0  0  0
  -12.7572   -5.5224  -14.2374 C   0  0  0  0  0  0  0  0  0  0  0  0
 32 33  1  0  0  0
 33 25  1  0  0  0
 25 26  1  0  0  0
 25 31  1  0  0  0
 26 27  1  0  0  0
 27 28  1  0  0  0
 28 29  1  0  0  0
 28 30  1  0  0  0
 30 31  1  0  0  0
 31 24  1  0  0  0
 24 23  1  0  0  0
 23  1  1  0  0  0
  1  2  1  0  0  0
  1 10  2  0  0  0
  2  3  2  0  0  0
  3  4  1  0  0  0
  3  8  1  0  0  0
  4  5  2  0  0  0
  5  6  1  0  0  0
  6  7  2  0  0  0
  7 11  1  0  0  0
  7  8  1  0  0  0
 11 13  1  0  0  0
 11 12  1  0  0  0
 13 14  1  0  0  0
 13 20  2  0  0  0
 14 15  2  0  0  0
 15 16  1  0  0  0
 16 17  1  0  0  0
 16 18  2  0  0  0
 18 19  1  0  0  0
 18 20  1  0  0  0
  8  9  2  0  0  0
  9 10  1  0  0  0
 10 21  1  0  0  0
 21 22  1  0  0  0
M  END
> <minimizedAffinity>
-7.33065

$$$$
