CHEMBL270058


 36 40  0  0  0  0  0  0  0  0999 V2000
  -26.6545   -2.1907  -10.7583 C   0  0  0  0  0  0  0  0  0  0  0  0
  -25.4806   -1.5280  -10.4133 C   0  0  0  0  0  0  0  0  0  0  0  0
  -24.7038   -0.8918  -11.4010 C   0  0  0  0  0  0  0  0  0  0  0  0
  -25.0719   -0.9130  -12.7502 C   0  0  0  0  0  0  0  0  0  0  0  0
  -26.2667   -1.5846  -13.0783 C   0  0  0  0  0  0  0  0  0  0  0  0
  -27.0355   -2.2335  -12.1005 C   0  0  0  0  0  0  0  0  0  0  0  0
  -26.7815   -1.6601  -14.3525 O   0  0  0  0  0  0  0  0  0  0  0  0
  -25.7836   -1.4513  -15.3510 C   0  0  0  0  0  0  0  0  0  0  0  0
  -24.9938   -0.1809  -15.0813 C   0  0  0  0  0  0  0  0  0  0  0  0
  -24.2999   -0.2738  -13.7883 N   0  0  0  0  0  0  0  0  0  0  0  0
  -22.9591    0.0938  -13.6121 C   0  0  0  0  0  0  0  0  0  0  0  0
  -22.2808   -0.2395  -12.6419 O   0  0  0  0  0  0  0  0  0  0  0  0
  -22.4306    0.8752  -14.6332 N   0  0  0  0  0  0  0  0  0  0  0  0
  -23.0762    1.5414  -15.0244 H   0  0  0  0  0  0  0  0  0  0  0  0
  -21.0550    1.2300  -14.6830 C   0  0  0  0  0  0  0  0  0  0  0  0
  -20.0937    0.2910  -15.0857 C   0  0  0  0  0  0  0  0  0  0  0  0
  -18.7404    0.6283  -15.1357 C   0  0  0  0  0  0  0  0  0  0  0  0
  -18.3341    1.9119  -14.7908 C   0  0  0  0  0  0  0  0  0  0  0  0
  -19.2812    2.8579  -14.3980 C   0  0  0  0  0  0  0  0  0  0  0  0
  -20.6479    2.5312  -14.3362 C   0  0  0  0  0  0  0  0  0  0  0  0
  -21.6163    3.5610  -13.8274 C   0  0  0  0  0  0  0  0  0  0  0  0
  -27.3400   -2.8109   -9.7302 O   0  0  0  0  0  0  0  0  0  0  0  0
  -30.0017   -3.7526   -5.4988 C   0  0  0  0  0  0  0  0  0  0  0  0
  -29.6024   -2.4076   -5.5057 C   0  0  0  0  0  0  0  0  0  0  0  0
  -28.8323   -1.8597   -6.5184 C   0  0  0  0  0  0  0  0  0  0  0  0
  -28.5850   -0.5436   -6.4684 N   0  0  0  0  0  0  0  0  0  0  0  0
  -27.8732    0.0076   -7.4710 C   0  0  0  0  0  0  0  0  0  0  0  0
  -27.3988   -0.7017   -8.5515 C   0  0  0  0  0  0  0  0  0  0  0  0
  -27.7094   -2.0576   -8.6307 C   0  0  0  0  0  0  0  0  0  0  0  0
  -28.3967   -2.6897   -7.5656 C   0  0  0  0  0  0  0  0  0  0  0  0
  -28.6877   -4.0725   -7.4904 C   0  0  0  0  0  0  0  0  0  0  0  0
  -29.4896   -4.6160   -6.4734 C   0  0  0  0  0  0  0  0  0  0  0  0
  -30.7934   -3.5588   -3.2737 C   0  0  0  0  0  0  0  0  0  0  0  0
  -30.8633   -4.2244   -4.5406 O   0  0  0  0  0  0  0  0  0  0  0  0
  -29.6614   -5.9656   -6.6098 O   0  0  0  0  0  0  0  0  0  0  0  0
  -29.0503   -6.6492   -7.6936 C   0  0  0  0  0  0  0  0  0  0  0  0
 33 34  1  0  0  0
 34 23  1  0  0  0
 23 24  1  0  0  0
 23 32  2  0  0  0
 24 25  2  0  0  0
 25 26  1  0  0  0
 25 30  1  0  0  0
 26 27  2  0  0  0
 27 28  1  0  0  0
 28 29  2  0  0  0
 29 22  1  0  0  0
 29 30  1  0  0  0
 22  1  1  0  0  0
  1  2  1  0  0  0
  1  6  2  0  0  0
  2  3  2  0  0  0
  3  4  1  0  0  0
  4  5  2  0  0  0
  4 10  1  0  0  0
  5  6  1  0  0  0
  5  7  1  0  0  0
  7  8  1  0  0  0
  8  9  1  0  0  0
  9 10  1  0  0  0
 10 11  1  0  0  0
 11 12  2  0  0  0
 11 13  1  0  0  0
 13 15  1  0  0  0
 13 14  1  0  0  0
 15 16  1  0  0  0
 15 20  2  0  0  0
 16 17  2  0  0  0
 17 18  1  0  0  0
 18 19  2  0  0  0
 19 20  1  0  0  0
 20 21  1  0  0  0
 30 31  2  0  0  0
 31 32  1  0  0  0
 32 35  1  0  0  0
 35 36  1  0  0  0
M  END
> <minimizedAffinity>
-8.94651

$$$$
