CHEMBL4243899


 37 41  0  0  0  0  0  0  0  0999 V2000
  -28.7918   -4.5257   -6.2441 C   0  0  0  0  0  0  0  0  0  0  0  0
  -28.1152   -3.3375   -5.9261 C   0  0  0  0  0  0  0  0  0  0  0  0
  -27.8628   -2.3590   -6.8824 C   0  0  0  0  0  0  0  0  0  0  0  0
  -28.2203   -2.5555   -8.2131 C   0  0  0  0  0  0  0  0  0  0  0  0
  -28.9377   -3.7039   -8.5488 C   0  0  0  0  0  0  0  0  0  0  0  0
  -29.2396   -4.6647   -7.5668 C   0  0  0  0  0  0  0  0  0  0  0  0
  -31.5693   -3.5549   -4.6144 N   0  0  0  0  0  0  0  0  0  0  0  0
  -31.1091   -4.6754   -4.0257 C   0  0  0  0  0  0  0  0  0  0  0  0
  -31.8580   -5.1284   -2.9756 O   0  0  0  0  0  0  0  0  0  0  0  0
  -31.3437   -6.3206   -2.4943 N   0  0  0  0  0  0  0  0  0  0  0  0
  -30.2760   -6.5753   -3.2567 C   0  0  0  0  0  0  0  0  0  0  0  0
  -29.4757   -7.6700   -3.1614 N   0  0  0  0  0  0  0  0  0  0  0  0
  -28.4568   -7.6763   -4.0651 C   0  0  0  0  0  0  0  0  0  0  0  0
  -28.2312   -6.6592   -5.0305 C   0  0  0  0  0  0  0  0  0  0  0  0
  -29.0329   -5.5038   -5.1833 C   0  0  0  0  0  0  0  0  0  0  0  0
  -30.0631   -5.5438   -4.2334 C   0  0  0  0  0  0  0  0  0  0  0  0
  -32.4967   -3.2326   -4.3444 H   0  0  0  0  0  0  0  0  0  0  0  0
  -31.3792   -3.4027   -5.6016 H   0  0  0  0  0  0  0  0  0  0  0  0
  -27.5518   -8.8497   -3.9869 C   0  0  0  0  0  0  0  0  0  0  0  0
  -28.0401  -10.1238   -3.6450 C   0  0  0  0  0  0  0  0  0  0  0  0
  -27.1865  -11.2284   -3.5505 C   0  0  0  0  0  0  0  0  0  0  0  0
  -25.8245  -11.0828   -3.7991 C   0  0  0  0  0  0  0  0  0  0  0  0
  -25.3163   -9.8372   -4.1497 C   0  0  0  0  0  0  0  0  0  0  0  0
  -26.1705   -8.7350   -4.2398 C   0  0  0  0  0  0  0  0  0  0  0  0
  -27.8893   -1.6163   -9.2145 N   0  0  0  0  0  0  0  0  0  0  0  0
  -26.9597   -1.8595  -10.2118 C   0  0  0  0  0  0  0  0  0  0  0  0
  -26.4415   -2.9486  -10.4365 O   0  0  0  0  0  0  0  0  0  0  0  0
  -26.6560   -0.7087  -10.9199 N   0  0  0  0  0  0  0  0  0  0  0  0
  -28.5508   -0.8758   -9.3994 H   0  0  0  0  0  0  0  0  0  0  0  0
  -26.6622    0.1358  -10.3652 H   0  0  0  0  0  0  0  0  0  0  0  0
  -25.7877   -0.7398  -12.0343 C   0  0  0  0  0  0  0  0  0  0  0  0
  -26.1358   -1.4103  -13.2171 C   0  0  0  0  0  0  0  0  0  0  0  0
  -25.2544   -1.4524  -14.2978 C   0  0  0  0  0  0  0  0  0  0  0  0
  -24.0139   -0.8319  -14.1989 C   0  0  0  0  0  0  0  0  0  0  0  0
  -23.6749   -0.1656  -13.0245 C   0  0  0  0  0  0  0  0  0  0  0  0
  -22.4679    0.4059  -12.9209 F   0  0  0  0  0  0  0  0  0  0  0  0
  -24.5560   -0.0948  -11.9490 C   0  0  0  0  0  0  0  0  0  0  0  0
  7  8  1  0  0  0
  7 17  1  0  0  0
  7 18  1  0  0  0
  8  9  1  0  0  0
  8 16  2  0  0  0
  9 10  1  0  0  0
 10 11  2  0  0  0
 11 12  1  0  0  0
 11 16  1  0  0  0
 12 13  2  0  0  0
 13 19  1  0  0  0
 13 14  1  0  0  0
 19 20  1  0  0  0
 19 24  2  0  0  0
 20 21  2  0  0  0
 21 22  1  0  0  0
 22 23  2  0  0  0
 23 24  1  0  0  0
 14 15  2  0  0  0
 15  1  1  0  0  0
 15 16  1  0  0  0
  1  2  1  0  0  0
  1  6  2  0  0  0
  2  3  2  0  0  0
  3  4  1  0  0  0
  4 25  1  0  0  0
  4  5  2  0  0  0
 25 26  1  0  0  0
 25 29  1  0  0  0
 26 27  2  0  0  0
 26 28  1  0  0  0
 28 31  1  0  0  0
 28 30  1  0  0  0
 31 32  1  0  0  0
 31 37  2  0  0  0
 32 33  2  0  0  0
 33 34  1  0  0  0
 34 35  2  0  0  0
 35 36  1  0  0  0
 35 37  1  0  0  0
  5  6  1  0  0  0
M  END
> <minimizedAffinity>
-9.68873

$$$$
