CHEMBL4103536


 43 46  0  0  0  0  0  0  0  0999 V2000
  -27.3541   -9.1934   -4.5484 N   0  0  0  0  0  0  0  0  0  0  0  0
  -26.0417   -9.4338   -4.1511 C   0  0  0  0  0  0  0  0  0  0  0  0
  -25.3277   -8.5760   -3.6309 O   0  0  0  0  0  0  0  0  0  0  0  0
  -25.4826  -10.8056   -4.3904 C   0  0  0  0  0  0  0  0  0  0  0  0
  -26.2628  -11.7833   -4.8723 C   0  0  0  0  0  0  0  0  0  0  0  0
  -27.6492  -11.4975   -5.1989 C   0  0  0  0  0  0  0  0  0  0  0  0
  -28.5169  -12.4623   -5.6583 C   0  0  0  0  0  0  0  0  0  0  0  0
  -29.7943  -12.2148   -5.9946 N   0  0  0  0  0  0  0  0  0  0  0  0
  -30.2146  -10.9499   -5.8789 C   0  0  0  0  0  0  0  0  0  0  0  0
  -29.4533   -9.9462   -5.4245 N   0  0  0  0  0  0  0  0  0  0  0  0
  -28.1804  -10.2253   -5.0748 C   0  0  0  0  0  0  0  0  0  0  0  0
  -24.0739  -11.0871   -4.0604 C   0  0  0  0  0  0  0  0  0  0  0  0
  -23.7505  -11.4819   -2.7507 C   0  0  0  0  0  0  0  0  0  0  0  0
  -22.4345  -11.8035   -2.4113 C   0  0  0  0  0  0  0  0  0  0  0  0
  -21.4288  -11.7357   -3.3733 C   0  0  0  0  0  0  0  0  0  0  0  0
  -21.7345  -11.3341   -4.6739 C   0  0  0  0  0  0  0  0  0  0  0  0
  -23.0500  -11.0066   -5.0180 C   0  0  0  0  0  0  0  0  0  0  0  0
  -23.3562  -10.4890   -6.6396 Cl  0  0  0  0  0  0  0  0  0  0  0  0
  -31.4868  -10.5976   -6.2773 N   0  0  0  0  0  0  0  0  0  0  0  0
  -32.0042  -11.4438   -6.4765 H   0  0  0  0  0  0  0  0  0  0  0  0
  -31.6058   -9.5252   -7.2541 C   0  0  0  0  0  0  0  0  0  0  0  0
  -31.3275  -10.0828   -8.6577 C   0  0  0  0  0  0  0  0  0  0  0  0
  -29.8615   -9.8744   -9.0581 C   0  0  0  0  0  0  0  0  0  0  0  0
  -29.2367  -11.0521   -9.8147 C   0  0  0  0  0  0  0  0  0  0  0  0
  -27.8385  -10.8931  -10.2675 N   0  0  0  0  0  0  0  0  0  0  0  0
  -27.6826   -9.9795  -11.4113 C   0  0  0  0  0  0  0  0  0  0  0  0
  -28.7452  -10.0629  -12.5039 C   0  0  0  0  0  0  0  0  0  0  0  0
  -27.0016  -10.5359   -9.1050 C   0  0  0  0  0  0  0  0  0  0  0  0
  -26.0590  -11.6351   -8.6272 C   0  0  0  0  0  0  0  0  0  0  0  0
  -27.9288   -7.8682   -4.2874 C   0  0  0  0  0  0  0  0  0  0  0  0
  -28.2126   -7.0732   -5.5678 C   0  0  0  0  0  0  0  0  0  0  0  0
  -29.1380   -2.8879   -4.9583 C   0  0  0  0  0  0  0  0  0  0  0  0
  -28.1932   -3.5415   -4.1558 C   0  0  0  0  0  0  0  0  0  0  0  0
  -27.9304   -4.9001   -4.3269 C   0  0  0  0  0  0  0  0  0  0  0  0
  -28.6007   -5.6362   -5.3072 C   0  0  0  0  0  0  0  0  0  0  0  0
  -29.6025   -5.0089   -6.0581 C   0  0  0  0  0  0  0  0  0  0  0  0
  -29.8727   -3.6435   -5.8769 C   0  0  0  0  0  0  0  0  0  0  0  0
  -28.7650   -0.5588   -5.7210 C   0  0  0  0  0  0  0  0  0  0  0  0
  -27.9762   -0.7771   -6.6382 O   0  0  0  0  0  0  0  0  0  0  0  0
  -29.3609   -1.4949   -4.8987 N   0  0  0  0  0  0  0  0  0  0  0  0
  -30.1086   -1.1841   -4.2889 H   0  0  0  0  0  0  0  0  0  0  0  0
  -30.4568    1.2026   -5.7365 C   0  0  0  0  0  0  0  0  0  0  0  0
  -29.2046    0.8376   -5.4373 C   0  0  0  0  0  0  0  0  0  0  0  0
 42 43  2  0  0  0
 43 38  1  0  0  0
 38 39  2  0  0  0
 38 40  1  0  0  0
 40 32  1  0  0  0
 40 41  1  0  0  0
 32 33  1  0  0  0
 32 37  2  0  0  0
 33 34  2  0  0  0
 34 35  1  0  0  0
 35 31  1  0  0  0
 35 36  2  0  0  0
 31 30  1  0  0  0
 30  1  1  0  0  0
  1  2  1  0  0  0
  1 11  1  0  0  0
  2  3  2  0  0  0
  2  4  1  0  0  0
  4 12  1  0  0  0
  4  5  2  0  0  0
 12 13  1  0  0  0
 12 17  2  0  0  0
 13 14  2  0  0  0
 14 15  1  0  0  0
 15 16  2  0  0  0
 16 17  1  0  0  0
 17 18  1  0  0  0
  5  6  1  0  0  0
  6  7  1  0  0  0
  6 11  2  0  0  0
  7  8  2  0  0  0
  8  9  1  0  0  0
  9 19  1  0  0  0
  9 10  2  0  0  0
 19 21  1  0  0  0
 19 20  1  0  0  0
 21 22  1  0  0  0
 22 23  1  0  0  0
 23 24  1  0  0  0
 24 25  1  0  0  0
 25 26  1  0  0  0
 25 28  1  0  0  0
 26 27  1  0  0  0
 28 29  1  0  0  0
 10 11  1  0  0  0
 36 37  1  0  0  0
M  END
> <minimizedAffinity>
-8.19724

$$$$
