CHEMBL4066145


 27 29  0  0  0  0  0  0  0  0999 V2000
  -28.9371   -7.3462   -7.1815 C   0  0  0  0  0  0  0  0  0  0  0  0
  -28.6787   -6.1747   -7.8819 C   0  0  0  0  0  0  0  0  0  0  0  0
  -28.5920   -4.9434   -7.2412 C   0  0  0  0  0  0  0  0  0  0  0  0
  -28.6406   -4.8360   -5.8519 C   0  0  0  0  0  0  0  0  0  0  0  0
  -28.7778   -6.0140   -5.1163 C   0  0  0  0  0  0  0  0  0  0  0  0
  -28.9413   -7.2510   -5.7764 C   0  0  0  0  0  0  0  0  0  0  0  0
  -32.4705   -7.9194   -6.9357 C   0  0  0  0  0  0  0  0  0  0  0  0
  -31.8130   -8.9877   -7.7400 C   0  0  0  0  0  0  0  0  0  0  0  0
  -32.6154   -9.9389   -8.2452 N   0  0  0  0  0  0  0  0  0  0  0  0
  -31.7745  -10.7611   -8.8933 N   0  0  0  0  0  0  0  0  0  0  0  0
  -30.4703  -10.3756   -8.8352 C   0  0  0  0  0  0  0  0  0  0  0  0
  -29.4562  -11.0435   -9.4161 N   0  0  0  0  0  0  0  0  0  0  0  0
  -28.2631  -10.4536   -9.2181 C   0  0  0  0  0  0  0  0  0  0  0  0
  -28.0566   -9.2831   -8.5048 C   0  0  0  0  0  0  0  0  0  0  0  0
  -29.1405   -8.6084   -7.9089 C   0  0  0  0  0  0  0  0  0  0  0  0
  -30.4279   -9.2009   -8.0897 C   0  0  0  0  0  0  0  0  0  0  0  0
  -32.1437  -11.5739   -9.3589 H   0  0  0  0  0  0  0  0  0  0  0  0
  -28.5238   -3.5916   -5.1809 N   0  0  0  0  0  0  0  0  0  0  0  0
  -28.8402   -2.3757   -5.7525 C   0  0  0  0  0  0  0  0  0  0  0  0
  -29.3181   -2.2274   -6.8689 O   0  0  0  0  0  0  0  0  0  0  0  0
  -28.5649   -1.2878   -4.9589 N   0  0  0  0  0  0  0  0  0  0  0  0
  -28.2711   -3.6052   -4.2055 H   0  0  0  0  0  0  0  0  0  0  0  0
  -28.1692   -1.4250   -4.0418 H   0  0  0  0  0  0  0  0  0  0  0  0
  -28.7589    0.0919   -5.4589 C   0  0  0  0  0  0  0  0  0  0  0  0
  -30.2574    0.4535   -5.5133 C   0  0  0  0  0  0  0  0  0  0  0  0
  -28.0721    1.0829   -4.5048 C   0  0  0  0  0  0  0  0  0  0  0  0
  -28.1211    0.2642   -6.8533 C   0  0  0  0  0  0  0  0  0  0  0  0
  7  8  1  0  0  0
  8  9  2  0  0  0
  8 16  1  0  0  0
  9 10  1  0  0  0
 10 11  1  0  0  0
 10 17  1  0  0  0
 11 12  1  0  0  0
 11 16  2  0  0  0
 12 13  2  0  0  0
 13 14  1  0  0  0
 14 15  2  0  0  0
 15  1  1  0  0  0
 15 16  1  0  0  0
  1  2  1  0  0  0
  1  6  2  0  0  0
  2  3  2  0  0  0
  3  4  1  0  0  0
  4 18  1  0  0  0
  4  5  2  0  0  0
 18 19  1  0  0  0
 18 22  1  0  0  0
 19 20  2  0  0  0
 19 21  1  0  0  0
 21 24  1  0  0  0
 21 23  1  0  0  0
 24 25  1  0  0  0
 24 26  1  0  0  0
 24 27  1  0  0  0
  5  6  1  0  0  0
M  END
> <minimizedAffinity>
-8.49002

$$$$
