CHEMBL4589270


 37 41  0  0  0  0  0  0  0  0999 V2000
  -26.4568   -2.1265  -10.8014 C   0  0  0  0  0  0  0  0  0  0  0  0
  -25.4313   -1.2569  -10.4461 C   0  0  0  0  0  0  0  0  0  0  0  0
  -24.7097   -0.5575  -11.4189 C   0  0  0  0  0  0  0  0  0  0  0  0
  -24.9582   -0.7188  -12.7898 C   0  0  0  0  0  0  0  0  0  0  0  0
  -25.9860   -1.6060  -13.1598 C   0  0  0  0  0  0  0  0  0  0  0  0
  -26.7210   -2.2918  -12.1658 C   0  0  0  0  0  0  0  0  0  0  0  0
  -26.3670   -1.8414  -14.5975 C   0  0  0  0  0  0  0  0  0  0  0  0
  -25.3565   -1.2736  -15.5795 C   0  0  0  0  0  0  0  0  0  0  0  0
  -24.8818    0.0894  -15.1093 C   0  0  0  0  0  0  0  0  0  0  0  0
  -24.2107    0.0012  -13.8041 N   0  0  0  0  0  0  0  0  0  0  0  0
  -22.9280    0.4904  -13.5208 C   0  0  0  0  0  0  0  0  0  0  0  0
  -22.3598    0.2742  -12.4510 O   0  0  0  0  0  0  0  0  0  0  0  0
  -22.2860    1.1907  -14.5310 N   0  0  0  0  0  0  0  0  0  0  0  0
  -22.8630    1.6138  -15.2421 H   0  0  0  0  0  0  0  0  0  0  0  0
  -20.9472    1.6750  -14.4610 C   0  0  0  0  0  0  0  0  0  0  0  0
  -20.6183    3.0064  -14.1655 C   0  0  0  0  0  0  0  0  0  0  0  0
  -19.2999    3.4618  -14.2044 C   0  0  0  0  0  0  0  0  0  0  0  0
  -18.2734    2.5739  -14.4990 C   0  0  0  0  0  0  0  0  0  0  0  0
  -18.5782    1.2343  -14.7303 C   0  0  0  0  0  0  0  0  0  0  0  0
  -17.2991    0.1291  -15.0639 Cl  0  0  0  0  0  0  0  0  0  0  0  0
  -19.9010    0.7770  -14.7084 C   0  0  0  0  0  0  0  0  0  0  0  0
  -27.2838   -2.7360   -9.8466 N   0  0  0  0  0  0  0  0  0  0  0  0
  -27.4096   -3.7332   -9.9484 H   0  0  0  0  0  0  0  0  0  0  0  0
  -29.9523   -4.6613   -5.9668 C   0  0  0  0  0  0  0  0  0  0  0  0
  -29.5067   -3.3705   -5.6236 C   0  0  0  0  0  0  0  0  0  0  0  0
  -28.7396   -2.5910   -6.4786 C   0  0  0  0  0  0  0  0  0  0  0  0
  -28.4600   -1.3327   -6.1257 N   0  0  0  0  0  0  0  0  0  0  0  0
  -27.8095   -0.5902   -7.0295 C   0  0  0  0  0  0  0  0  0  0  0  0
  -27.4082   -0.9902   -8.2386 N   0  0  0  0  0  0  0  0  0  0  0  0
  -27.6604   -2.2695   -8.5678 C   0  0  0  0  0  0  0  0  0  0  0  0
  -28.3352   -3.1403   -7.6951 C   0  0  0  0  0  0  0  0  0  0  0  0
  -28.6749   -4.4778   -7.9938 C   0  0  0  0  0  0  0  0  0  0  0  0
  -29.4883   -5.2422   -7.1502 C   0  0  0  0  0  0  0  0  0  0  0  0
  -31.1189   -4.7311   -3.9043 C   0  0  0  0  0  0  0  0  0  0  0  0
  -30.8209   -5.3499   -5.1604 O   0  0  0  0  0  0  0  0  0  0  0  0
  -29.7246   -6.4774   -7.6800 O   0  0  0  0  0  0  0  0  0  0  0  0
  -28.6472   -7.3102   -8.0675 C   0  0  0  0  0  0  0  0  0  0  0  0
 34 35  1  0  0  0
 35 24  1  0  0  0
 24 25  1  0  0  0
 24 33  2  0  0  0
 25 26  2  0  0  0
 26 27  1  0  0  0
 26 31  1  0  0  0
 27 28  2  0  0  0
 28 29  1  0  0  0
 29 30  2  0  0  0
 30 22  1  0  0  0
 30 31  1  0  0  0
 22  1  1  0  0  0
 22 23  1  0  0  0
  1  2  1  0  0  0
  1  6  2  0  0  0
  2  3  2  0  0  0
  3  4  1  0  0  0
  4  5  2  0  0  0
  4 10  1  0  0  0
  5  6  1  0  0  0
  5  7  1  0  0  0
  7  8  1  0  0  0
  8  9  1  0  0  0
  9 10  1  0  0  0
 10 11  1  0  0  0
 11 12  2  0  0  0
 11 13  1  0  0  0
 13 15  1  0  0  0
 13 14  1  0  0  0
 15 16  1  0  0  0
 15 21  2  0  0  0
 16 17  2  0  0  0
 17 18  1  0  0  0
 18 19  2  0  0  0
 19 20  1  0  0  0
 19 21  1  0  0  0
 31 32  2  0  0  0
 32 33  1  0  0  0
 33 36  1  0  0  0
 36 37  1  0  0  0
M  END
> <minimizedAffinity>
-10.10370

$$$$
