CHEMBL3644544


 33 36  0  0  0  0  0  0  0  0999 V2000
  -28.9162   -3.5044   -6.8689 C   0  0  0  0  0  0  0  0  0  0  0  0
  -28.6404   -2.5700   -5.8643 C   0  0  0  0  0  0  0  0  0  0  0  0
  -28.0175   -1.3695   -6.0364 N   0  0  0  0  0  0  0  0  0  0  0  0
  -27.6542   -1.0512   -7.2992 C   0  0  0  0  0  0  0  0  0  0  0  0
  -27.8629   -1.8900   -8.3761 C   0  0  0  0  0  0  0  0  0  0  0  0
  -28.5015   -3.1185   -8.1443 C   0  0  0  0  0  0  0  0  0  0  0  0
  -28.2813  -10.1212   -3.6761 N   0  0  0  0  0  0  0  0  0  0  0  0
  -28.7042   -8.8720   -4.0783 C   0  0  0  0  0  0  0  0  0  0  0  0
  -29.2515   -8.0781   -3.1556 N   0  0  0  0  0  0  0  0  0  0  0  0
  -29.6512   -6.8597   -3.5723 C   0  0  0  0  0  0  0  0  0  0  0  0
  -29.5073   -6.4043   -4.8656 C   0  0  0  0  0  0  0  0  0  0  0  0
  -28.9135   -7.2990   -5.7357 C   0  0  0  0  0  0  0  0  0  0  0  0
  -28.4959   -8.5281   -5.3524 N   0  0  0  0  0  0  0  0  0  0  0  0
  -28.6497   -6.9173   -7.1683 C   0  0  0  0  0  0  0  0  0  0  0  0
  -29.5819   -5.7958   -7.6131 C   0  0  0  0  0  0  0  0  0  0  0  0
  -29.5676   -4.7014   -6.6331 N   0  0  0  0  0  0  0  0  0  0  0  0
  -30.0145   -5.0524   -5.2806 C   0  0  0  0  0  0  0  0  0  0  0  0
  -28.0965  -10.1112   -2.6832 H   0  0  0  0  0  0  0  0  0  0  0  0
  -27.5392  -10.4373   -4.2841 H   0  0  0  0  0  0  0  0  0  0  0  0
  -27.5367   -1.5343   -9.7722 C   0  0  0  0  0  0  0  0  0  0  0  0
  -28.4771   -1.1532  -10.4658 O   0  0  0  0  0  0  0  0  0  0  0  0
  -26.2318   -1.7229  -10.2061 N   0  0  0  0  0  0  0  0  0  0  0  0
  -25.5995   -2.2413   -9.6086 H   0  0  0  0  0  0  0  0  0  0  0  0
  -25.7921   -1.4827  -11.5338 C   0  0  0  0  0  0  0  0  0  0  0  0
  -26.4977   -1.9299  -12.6552 C   0  0  0  0  0  0  0  0  0  0  0  0
  -25.9900   -1.7617  -13.9432 C   0  0  0  0  0  0  0  0  0  0  0  0
  -24.7671   -1.1303  -14.1296 C   0  0  0  0  0  0  0  0  0  0  0  0
  -24.0534   -0.6354  -13.0286 C   0  0  0  0  0  0  0  0  0  0  0  0
  -24.5880   -0.7967  -11.7319 C   0  0  0  0  0  0  0  0  0  0  0  0
  -22.7148    0.0308  -13.2267 C   0  0  0  0  0  0  0  0  0  0  0  0
  -21.9686   -0.5250  -14.2207 F   0  0  0  0  0  0  0  0  0  0  0  0
  -22.8304    1.3508  -13.5398 F   0  0  0  0  0  0  0  0  0  0  0  0
  -21.9396   -0.0208  -12.1075 F   0  0  0  0  0  0  0  0  0  0  0  0
  7  8  1  0  0  0
  7 18  1  0  0  0
  7 19  1  0  0  0
  8  9  1  0  0  0
  8 13  2  0  0  0
  9 10  2  0  0  0
 10 11  1  0  0  0
 11 12  2  0  0  0
 11 17  1  0  0  0
 12 13  1  0  0  0
 12 14  1  0  0  0
 14 15  1  0  0  0
 15 16  1  0  0  0
 16  1  1  0  0  0
 16 17  1  0  0  0
  1  2  1  0  0  0
  1  6  2  0  0  0
  2  3  2  0  0  0
  3  4  1  0  0  0
  4  5  2  0  0  0
  5 20  1  0  0  0
  5  6  1  0  0  0
 20 21  2  0  0  0
 20 22  1  0  0  0
 22 24  1  0  0  0
 22 23  1  0  0  0
 24 25  1  0  0  0
 24 29  2  0  0  0
 25 26  2  0  0  0
 26 27  1  0  0  0
 27 28  2  0  0  0
 28 30  1  0  0  0
 28 29  1  0  0  0
 30 31  1  0  0  0
 30 32  1  0  0  0
 30 33  1  0  0  0
M  END
> <minimizedAffinity>
-10.92414

$$$$
