CHEMBL2016898


 30 34  0  0  0  0  0  0  0  0999 V2000
  -28.6259   -1.6442   -3.4889 O   0  0  0  0  0  0  0  0  0  0  0  0
  -28.7650   -1.6631   -4.7037 C   0  0  0  0  0  0  0  0  0  0  0  0
  -28.7072   -2.9135   -5.4015 N   0  0  0  0  0  0  0  0  0  0  0  0
  -28.9200   -2.9475   -6.8471 C   0  0  0  0  0  0  0  0  0  0  0  0
  -28.6932   -4.1927   -7.6650 C   0  0  0  0  0  0  0  0  0  0  0  0
  -28.7585   -5.3708   -6.8199 C   0  0  0  0  0  0  0  0  0  0  0  0
  -28.7545   -6.6239   -7.3165 N   0  0  0  0  0  0  0  0  0  0  0  0
  -28.9259   -7.4106   -6.2698 C   0  0  0  0  0  0  0  0  0  0  0  0
  -28.9873   -6.6618   -5.1029 N   0  0  0  0  0  0  0  0  0  0  0  0
  -28.8674   -5.3500   -5.4601 C   0  0  0  0  0  0  0  0  0  0  0  0
  -28.9194   -4.1311   -4.5923 C   0  0  0  0  0  0  0  0  0  0  0  0
  -29.1535   -7.0577   -4.1866 H   0  0  0  0  0  0  0  0  0  0  0  0
  -29.1379   -8.8192   -6.2715 C   0  0  0  0  0  0  0  0  0  0  0  0
  -29.5563   -9.3701   -7.4257 C   0  0  0  0  0  0  0  0  0  0  0  0
  -30.2131  -10.6721   -7.4182 C   0  0  0  0  0  0  0  0  0  0  0  0
  -30.7797  -11.1783   -8.5809 C   0  0  0  0  0  0  0  0  0  0  0  0
  -31.9424  -11.9276   -8.4716 C   0  0  0  0  0  0  0  0  0  0  0  0
  -32.3017  -12.4613   -7.2336 C   0  0  0  0  0  0  0  0  0  0  0  0
  -31.5026  -12.2302   -6.1121 C   0  0  0  0  0  0  0  0  0  0  0  0
  -30.5185  -11.2510   -6.1867 C   0  0  0  0  0  0  0  0  0  0  0  0
  -29.8700  -10.7907   -5.0367 N   0  0  0  0  0  0  0  0  0  0  0  0
  -29.1434   -9.6165   -5.0109 C   0  0  0  0  0  0  0  0  0  0  0  0
  -28.5962   -9.2200   -3.9901 O   0  0  0  0  0  0  0  0  0  0  0  0
  -29.9753  -11.2716   -4.1570 H   0  0  0  0  0  0  0  0  0  0  0  0
  -29.0619   -0.3439   -5.4048 C   0  0  0  0  0  0  0  0  0  0  0  0
  -28.1982    0.4890   -6.1380 C   0  0  0  0  0  0  0  0  0  0  0  0
  -28.6246    1.6538   -6.7714 C   0  0  0  0  0  0  0  0  0  0  0  0
  -29.9542    1.9761   -6.6848 C   0  0  0  0  0  0  0  0  0  0  0  0
  -30.8432    1.2271   -6.0066 N   0  0  0  0  0  0  0  0  0  0  0  0
  -30.3843    0.1020   -5.3924 C   0  0  0  0  0  0  0  0  0  0  0  0
  1  2  2  0  0  0
  2 25  1  0  0  0
  2  3  1  0  0  0
 25 26  1  0  0  0
 25 30  2  0  0  0
 26 27  2  0  0  0
 27 28  1  0  0  0
 28 29  2  0  0  0
 29 30  1  0  0  0
  3  4  1  0  0  0
  3 11  1  0  0  0
  4  5  1  0  0  0
  5  6  1  0  0  0
  6  7  1  0  0  0
  6 10  2  0  0  0
  7  8  2  0  0  0
  8 13  1  0  0  0
  8  9  1  0  0  0
 13 14  2  0  0  0
 13 22  1  0  0  0
 14 15  1  0  0  0
 15 16  1  0  0  0
 15 20  2  0  0  0
 16 17  2  0  0  0
 17 18  1  0  0  0
 18 19  2  0  0  0
 19 20  1  0  0  0
 20 21  1  0  0  0
 21 22  1  0  0  0
 21 24  1  0  0  0
 22 23  2  0  0  0
  9 10  1  0  0  0
  9 12  1  0  0  0
 10 11  1  0  0  0
M  END
> <minimizedAffinity>
-7.71305

$$$$
