CHEMBL147761


 26 28  0  0  0  0  0  0  0  0999 V2000
  -29.0696  -11.1616   -8.8398 C   0  0  0  0  0  0  0  0  0  0  0  0
  -28.7132   -9.7347   -8.6175 C   0  0  0  0  0  0  0  0  0  0  0  0
  -27.7712   -9.0262   -9.3375 C   0  0  0  0  0  0  0  0  0  0  0  0
  -27.6978   -7.7601   -8.8283 N   0  0  0  0  0  0  0  0  0  0  0  0
  -28.6127   -7.6199   -7.8213 C   0  0  0  0  0  0  0  0  0  0  0  0
  -29.2629   -8.8288   -7.6438 C   0  0  0  0  0  0  0  0  0  0  0  0
  -27.0872   -7.0305   -9.1712 H   0  0  0  0  0  0  0  0  0  0  0  0
  -28.8248   -6.3296   -7.3044 C   0  0  0  0  0  0  0  0  0  0  0  0
  -28.6172   -5.9234   -6.0454 C   0  0  0  0  0  0  0  0  0  0  0  0
  -28.0127   -6.7090   -4.9084 C   0  0  0  0  0  0  0  0  0  0  0  0
  -27.5764   -7.8426   -4.9094 O   0  0  0  0  0  0  0  0  0  0  0  0
  -28.0178   -5.8341   -3.8323 N   0  0  0  0  0  0  0  0  0  0  0  0
  -28.5574   -4.5972   -4.1768 C   0  0  0  0  0  0  0  0  0  0  0  0
  -28.7078   -3.5128   -3.3346 C   0  0  0  0  0  0  0  0  0  0  0  0
  -29.2856   -2.3622   -3.8673 C   0  0  0  0  0  0  0  0  0  0  0  0
  -29.6997   -2.3253   -5.2098 C   0  0  0  0  0  0  0  0  0  0  0  0
  -29.5431   -3.4363   -6.0611 C   0  0  0  0  0  0  0  0  0  0  0  0
  -30.0235   -3.3331   -7.4761 C   0  0  0  0  0  0  0  0  0  0  0  0
  -28.9519   -4.5802   -5.5229 C   0  0  0  0  0  0  0  0  0  0  0  0
  -27.6652   -6.0911   -2.9230 H   0  0  0  0  0  0  0  0  0  0  0  0
  -30.3459   -9.1230   -6.6370 C   0  0  0  0  0  0  0  0  0  0  0  0
  -31.7263   -8.6279   -7.0727 C   0  0  0  0  0  0  0  0  0  0  0  0
  -32.5647   -9.7394   -7.6518 C   0  0  0  0  0  0  0  0  0  0  0  0
  -33.3533  -10.4343   -7.0331 O   0  0  0  0  0  0  0  0  0  0  0  0
  -32.3566   -9.8967   -8.9823 O   0  0  0  0  0  0  0  0  0  0  0  0
  -31.6999   -9.2779   -9.3536 H   0  0  0  0  0  0  0  0  0  0  0  0
  1  2  1  0  0  0
  2  3  2  0  0  0
  2  6  1  0  0  0
  3  4  1  0  0  0
  4  5  1  0  0  0
  4  7  1  0  0  0
  5  8  1  0  0  0
  5  6  2  0  0  0
  8  9  2  0  0  0
  9 10  1  0  0  0
  9 19  1  0  0  0
 10 11  2  0  0  0
 10 12  1  0  0  0
 12 13  1  0  0  0
 12 20  1  0  0  0
 13 14  1  0  0  0
 13 19  2  0  0  0
 14 15  2  0  0  0
 15 16  1  0  0  0
 16 17  2  0  0  0
 17 18  1  0  0  0
 17 19  1  0  0  0
  6 21  1  0  0  0
 21 22  1  0  0  0
 22 23  1  0  0  0
 23 24  2  0  0  0
 23 25  1  0  0  0
 25 26  1  0  0  0
M  END
> <minimizedAffinity>
-8.19689

$$$$
