CHEMBL3633767


 32 34  0  0  0  0  0  0  0  0999 V2000
  -28.6466   -4.9368   -5.8842 C   0  0  0  0  0  0  0  0  0  0  0  0
  -28.4840   -3.5790   -5.5891 C   0  0  0  0  0  0  0  0  0  0  0  0
  -28.2510   -2.6257   -6.5675 C   0  0  0  0  0  0  0  0  0  0  0  0
  -28.0884   -1.3605   -6.1733 N   0  0  0  0  0  0  0  0  0  0  0  0
  -27.8540   -0.4607   -7.1298 C   0  0  0  0  0  0  0  0  0  0  0  0
  -27.7810   -0.7142   -8.4357 N   0  0  0  0  0  0  0  0  0  0  0  0
  -27.9656   -1.9915   -8.8271 C   0  0  0  0  0  0  0  0  0  0  0  0
  -28.1973   -3.0256   -7.9062 C   0  0  0  0  0  0  0  0  0  0  0  0
  -28.3807   -4.3909   -8.2274 C   0  0  0  0  0  0  0  0  0  0  0  0
  -28.6548   -5.3321   -7.2313 C   0  0  0  0  0  0  0  0  0  0  0  0
  -29.8718   -5.6858   -3.9495 C   0  0  0  0  0  0  0  0  0  0  0  0
  -28.8498   -5.8883   -4.9229 O   0  0  0  0  0  0  0  0  0  0  0  0
  -27.9347   -2.2791  -10.2201 N   0  0  0  0  0  0  0  0  0  0  0  0
  -28.8242   -2.0002  -10.6327 H   0  0  0  0  0  0  0  0  0  0  0  0
  -26.8536   -1.9057  -11.0634 C   0  0  0  0  0  0  0  0  0  0  0  0
  -25.6132   -1.5682  -10.4975 C   0  0  0  0  0  0  0  0  0  0  0  0
  -24.5584   -1.1229  -11.2916 C   0  0  0  0  0  0  0  0  0  0  0  0
  -24.7295   -1.0269  -12.6699 C   0  0  0  0  0  0  0  0  0  0  0  0
  -23.4421   -0.4325  -13.6431 Cl  0  0  0  0  0  0  0  0  0  0  0  0
  -25.9338   -1.3986  -13.2637 C   0  0  0  0  0  0  0  0  0  0  0  0
  -26.9886   -1.8433  -12.4614 C   0  0  0  0  0  0  0  0  0  0  0  0
  -28.4797   -2.2758  -13.2225 Cl  0  0  0  0  0  0  0  0  0  0  0  0
  -28.8974   -6.5949   -7.7147 O   0  0  0  0  0  0  0  0  0  0  0  0
  -30.2444   -7.0460   -7.5633 C   0  0  0  0  0  0  0  0  0  0  0  0
  -30.3626   -8.5069   -8.0049 C   0  0  0  0  0  0  0  0  0  0  0  0
  -30.9586   -9.3319   -6.8681 C   0  0  0  0  0  0  0  0  0  0  0  0
  -32.3764   -9.7942   -7.1131 C   0  0  0  0  0  0  0  0  0  0  0  0
  -33.1365   -9.3323   -7.9565 O   0  0  0  0  0  0  0  0  0  0  0  0
  -32.7490  -10.8079   -6.2552 N   0  0  0  0  0  0  0  0  0  0  0  0
  -34.0285  -11.3712   -6.4752 O   0  0  0  0  0  0  0  0  0  0  0  0
  -32.0795  -11.3945   -5.7679 H   0  0  0  0  0  0  0  0  0  0  0  0
  -34.3727  -10.8283   -7.2177 H   0  0  0  0  0  0  0  0  0  0  0  0
 11 12  1  0  0  0
 12  1  1  0  0  0
  1  2  1  0  0  0
  1 10  2  0  0  0
  2  3  2  0  0  0
  3  4  1  0  0  0
  3  8  1  0  0  0
  4  5  2  0  0  0
  5  6  1  0  0  0
  6  7  2  0  0  0
  7 13  1  0  0  0
  7  8  1  0  0  0
 13 15  1  0  0  0
 13 14  1  0  0  0
 15 16  1  0  0  0
 15 21  2  0  0  0
 16 17  2  0  0  0
 17 18  1  0  0  0
 18 19  1  0  0  0
 18 20  2  0  0  0
 20 21  1  0  0  0
 21 22  1  0  0  0
  8  9  2  0  0  0
  9 10  1  0  0  0
 10 23  1  0  0  0
 23 24  1  0  0  0
 24 25  1  0  0  0
 25 26  1  0  0  0
 26 27  1  0  0  0
 27 28  2  0  0  0
 27 29  1  0  0  0
 29 30  1  0  0  0
 29 31  1  0  0  0
 30 32  1  0  0  0
M  END
> <minimizedAffinity>
-8.63452

$$$$
