CHEMBL1976220


 31 34  0  0  0  0  0  0  0  0999 V2000
  -22.9640   -0.6686  -13.5945 C   0  0  0  0  0  0  0  0  0  0  0  0
  -22.8339   -1.1407  -12.2830 C   0  0  0  0  0  0  0  0  0  0  0  0
  -23.9103   -1.7273  -11.6169 C   0  0  0  0  0  0  0  0  0  0  0  0
  -25.1651   -1.8111  -12.2176 C   0  0  0  0  0  0  0  0  0  0  0  0
  -25.2982   -1.3890  -13.5441 C   0  0  0  0  0  0  0  0  0  0  0  0
  -24.1986   -0.8420  -14.2321 C   0  0  0  0  0  0  0  0  0  0  0  0
  -23.3450    2.6696  -13.3344 N   0  0  0  0  0  0  0  0  0  0  0  0
  -22.1494    2.5945  -14.0402 C   0  0  0  0  0  0  0  0  0  0  0  0
  -21.6125    3.7995  -14.3371 N   0  0  0  0  0  0  0  0  0  0  0  0
  -20.4293    3.8773  -14.9638 C   0  0  0  0  0  0  0  0  0  0  0  0
  -19.6873    2.7851  -15.3427 C   0  0  0  0  0  0  0  0  0  0  0  0
  -20.2475    1.5344  -15.0609 C   0  0  0  0  0  0  0  0  0  0  0  0
  -19.5226    0.0250  -15.4395 S   0  0  0  0  0  0  0  0  0  0  0  0
  -20.8256   -0.8368  -14.7863 C   0  0  0  0  0  0  0  0  0  0  0  0
  -21.8135   -0.0278  -14.2502 C   0  0  0  0  0  0  0  0  0  0  0  0
  -21.4860    1.3919  -14.4151 C   0  0  0  0  0  0  0  0  0  0  0  0
  -23.4640    3.6273  -13.0189 H   0  0  0  0  0  0  0  0  0  0  0  0
  -23.4130    1.9724  -12.6038 H   0  0  0  0  0  0  0  0  0  0  0  0
  -26.2887   -2.3275  -11.5371 N   0  0  0  0  0  0  0  0  0  0  0  0
  -26.5955   -2.0206  -10.2177 C   0  0  0  0  0  0  0  0  0  0  0  0
  -26.0459   -1.1439   -9.5599 O   0  0  0  0  0  0  0  0  0  0  0  0
  -27.5806   -2.8556   -9.7161 N   0  0  0  0  0  0  0  0  0  0  0  0
  -27.0538   -2.6764  -12.0912 H   0  0  0  0  0  0  0  0  0  0  0  0
  -27.5631   -3.7932  -10.0909 H   0  0  0  0  0  0  0  0  0  0  0  0
  -28.0990   -2.6947   -8.4106 C   0  0  0  0  0  0  0  0  0  0  0  0
  -28.8228   -3.7133   -7.7767 C   0  0  0  0  0  0  0  0  0  0  0  0
  -29.3532   -3.5237   -6.5002 C   0  0  0  0  0  0  0  0  0  0  0  0
  -29.1654   -2.3065   -5.8489 C   0  0  0  0  0  0  0  0  0  0  0  0
  -28.4429   -1.2929   -6.4782 C   0  0  0  0  0  0  0  0  0  0  0  0
  -28.2411    0.3784   -5.6147 Br  0  0  0  0  0  0  0  0  0  0  0  0
  -27.8880   -1.4859   -7.7453 C   0  0  0  0  0  0  0  0  0  0  0  0
  7  8  1  0  0  0
  7 17  1  0  0  0
  7 18  1  0  0  0
  8  9  1  0  0  0
  8 16  2  0  0  0
  9 10  2  0  0  0
 10 11  1  0  0  0
 11 12  2  0  0  0
 12 13  1  0  0  0
 12 16  1  0  0  0
 13 14  1  0  0  0
 14 15  2  0  0  0
 15  1  1  0  0  0
 15 16  1  0  0  0
  1  2  1  0  0  0
  1  6  2  0  0  0
  2  3  2  0  0  0
  3  4  1  0  0  0
  4 19  1  0  0  0
  4  5  2  0  0  0
 19 20  1  0  0  0
 19 23  1  0  0  0
 20 21  2  0  0  0
 20 22  1  0  0  0
 22 25  1  0  0  0
 22 24  1  0  0  0
 25 26  1  0  0  0
 25 31  2  0  0  0
 26 27  2  0  0  0
 27 28  1  0  0  0
 28 29  2  0  0  0
 29 30  1  0  0  0
 29 31  1  0  0  0
  5  6  1  0  0  0
M  END
> <minimizedAffinity>
-9.49556

$$$$
