CHEMBL4513911


 36 39  0  0  0  0  0  0  0  0999 V2000
  -28.2092   -4.7513   -4.2844 O   0  0  0  0  0  0  0  0  0  0  0  0
  -29.2088   -4.9758   -4.9610 C   0  0  0  0  0  0  0  0  0  0  0  0
  -29.6811   -4.1607   -5.9967 N   0  0  0  0  0  0  0  0  0  0  0  0
  -30.5986   -4.3617   -6.3746 H   0  0  0  0  0  0  0  0  0  0  0  0
  -29.0607   -2.9697   -6.4552 C   0  0  0  0  0  0  0  0  0  0  0  0
  -29.2233   -1.7525   -5.7884 C   0  0  0  0  0  0  0  0  0  0  0  0
  -28.6850   -0.5832   -6.3055 C   0  0  0  0  0  0  0  0  0  0  0  0
  -27.9196   -0.6253   -7.4616 C   0  0  0  0  0  0  0  0  0  0  0  0
  -27.6344   -1.8390   -8.0900 C   0  0  0  0  0  0  0  0  0  0  0  0
  -28.2440   -3.0119   -7.6038 C   0  0  0  0  0  0  0  0  0  0  0  0
  -26.7331   -1.9127   -9.1793 N   0  0  0  0  0  0  0  0  0  0  0  0
  -27.0498   -1.5984  -10.4951 C   0  0  0  0  0  0  0  0  0  0  0  0
  -28.1506   -1.2491  -10.9226 O   0  0  0  0  0  0  0  0  0  0  0  0
  -25.7443   -2.0559   -8.9974 H   0  0  0  0  0  0  0  0  0  0  0  0
  -25.9081   -1.6410  -11.4626 C   0  0  0  0  0  0  0  0  0  0  0  0
  -26.1832   -1.5576  -12.8256 C   0  0  0  0  0  0  0  0  0  0  0  0
  -25.1140   -1.5426  -13.7151 C   0  0  0  0  0  0  0  0  0  0  0  0
  -23.8221   -1.6139  -13.2104 C   0  0  0  0  0  0  0  0  0  0  0  0
  -23.6412   -1.7044  -11.8374 C   0  0  0  0  0  0  0  0  0  0  0  0
  -24.6550   -1.7170  -10.9345 N   0  0  0  0  0  0  0  0  0  0  0  0
  -30.0501   -6.2328   -4.7587 C   0  0  0  0  0  0  0  0  0  0  0  0
  -29.0852   -7.5599   -3.9634 S   0  0  0  0  0  0  0  0  0  0  0  0
  -28.5855   -8.5326   -5.3474 C   0  0  0  0  0  0  0  0  0  0  0  0
  -29.1879   -8.3179   -6.8994 S   0  0  0  0  0  0  0  0  0  0  0  0
  -27.6106   -9.4668   -5.0136 N   0  0  0  0  0  0  0  0  0  0  0  0
  -26.7619  -10.0843   -6.0474 C   0  0  0  0  0  0  0  0  0  0  0  0
  -26.3394  -11.5069   -5.6474 C   0  0  0  0  0  0  0  0  0  0  0  0
  -25.7004  -11.6121   -4.3164 N   0  0  0  0  0  0  0  0  0  0  0  0
  -26.6101  -10.9893   -3.3224 C   0  0  0  0  0  0  0  0  0  0  0  0
  -27.0551   -9.5488   -3.6574 C   0  0  0  0  0  0  0  0  0  0  0  0
  -24.2966  -11.1364   -4.2051 C   0  0  0  0  0  0  0  0  0  0  0  0
  -23.3518  -11.7304   -5.2818 C   0  0  0  0  0  0  0  0  0  0  0  0
  -21.8605  -11.5169   -5.0162 C   0  0  0  0  0  0  0  0  0  0  0  0
  -21.4678  -11.9498   -3.6120 C   0  0  0  0  0  0  0  0  0  0  0  0
  -22.2956  -11.1899   -2.5911 C   0  0  0  0  0  0  0  0  0  0  0  0
  -23.7814  -11.4758   -2.7824 C   0  0  0  0  0  0  0  0  0  0  0  0
  1  2  2  0  0  0
  2 21  1  0  0  0
  2  3  1  0  0  0
 21 22  1  0  0  0
 22 23  1  0  0  0
 23 24  2  0  0  0
 23 25  1  0  0  0
 25 26  1  0  0  0
 25 30  1  0  0  0
 26 27  1  0  0  0
 27 28  1  0  0  0
 28 31  1  0  0  0
 28 29  1  0  0  0
 31 32  1  0  0  0
 31 36  1  0  0  0
 32 33  1  0  0  0
 33 34  1  0  0  0
 34 35  1  0  0  0
 35 36  1  0  0  0
 29 30  1  0  0  0
  3  5  1  0  0  0
  3  4  1  0  0  0
  5  6  1  0  0  0
  5 10  2  0  0  0
  6  7  2  0  0  0
  7  8  1  0  0  0
  8  9  2  0  0  0
  9 11  1  0  0  0
  9 10  1  0  0  0
 11 12  1  0  0  0
 11 14  1  0  0  0
 12 13  2  0  0  0
 12 15  1  0  0  0
 15 16  1  0  0  0
 15 20  2  0  0  0
 16 17  2  0  0  0
 17 18  1  0  0  0
 18 19  2  0  0  0
 19 20  1  0  0  0
M  END
> <minimizedAffinity>
-9.07494

$$$$
