CHEMBL3968039


 46 50  0  0  0  0  0  0  0  0999 V2000
  -17.7870    0.8704  -14.9492 C   0  0  0  0  0  0  0  0  0  0  0  0
  -19.1444    0.5528  -14.7841 C   0  0  0  0  0  0  0  0  0  0  0  0
  -20.1336    1.4909  -14.5714 C   0  0  0  0  0  0  0  0  0  0  0  0
  -21.5070    1.2082  -14.2911 C   0  0  0  0  0  0  0  0  0  0  0  0
  -22.4295    2.1662  -14.3151 N   0  0  0  0  0  0  0  0  0  0  0  0
  -22.0212    3.4065  -14.5253 C   0  0  0  0  0  0  0  0  0  0  0  0
  -20.7542    3.7958  -14.6746 N   0  0  0  0  0  0  0  0  0  0  0  0
  -19.8132    2.8460  -14.6953 C   0  0  0  0  0  0  0  0  0  0  0  0
  -18.4604    3.1846  -14.8736 C   0  0  0  0  0  0  0  0  0  0  0  0
  -17.4332    2.2373  -14.9834 C   0  0  0  0  0  0  0  0  0  0  0  0
  -16.0237   -0.5178  -14.1011 C   0  0  0  0  0  0  0  0  0  0  0  0
  -16.9153   -0.1721  -15.1739 O   0  0  0  0  0  0  0  0  0  0  0  0
  -21.8951   -0.1111  -13.9300 N   0  0  0  0  0  0  0  0  0  0  0  0
  -21.1103   -0.7191  -13.8499 H   0  0  0  0  0  0  0  0  0  0  0  0
  -23.0460   -0.4834  -13.1591 C   0  0  0  0  0  0  0  0  0  0  0  0
  -22.8783   -1.0350  -11.8886 C   0  0  0  0  0  0  0  0  0  0  0  0
  -23.9361   -1.6982  -11.2436 C   0  0  0  0  0  0  0  0  0  0  0  0
  -25.1800   -1.8714  -11.8461 C   0  0  0  0  0  0  0  0  0  0  0  0
  -25.3427   -1.3197  -13.1350 C   0  0  0  0  0  0  0  0  0  0  0  0
  -26.6604   -1.6822  -14.1944 Cl  0  0  0  0  0  0  0  0  0  0  0  0
  -24.2868   -0.6020  -13.7429 C   0  0  0  0  0  0  0  0  0  0  0  0
  -26.2002   -2.6201  -11.1533 N   0  0  0  0  0  0  0  0  0  0  0  0
  -26.7471   -2.2344   -9.9380 C   0  0  0  0  0  0  0  0  0  0  0  0
  -26.4099   -1.2328   -9.2788 O   0  0  0  0  0  0  0  0  0  0  0  0
  -27.6732   -3.1071   -9.4191 N   0  0  0  0  0  0  0  0  0  0  0  0
  -26.4293   -3.5324  -11.4873 H   0  0  0  0  0  0  0  0  0  0  0  0
  -27.4195   -4.0769   -9.5576 H   0  0  0  0  0  0  0  0  0  0  0  0
  -28.2456   -2.8236   -8.1456 C   0  0  0  0  0  0  0  0  0  0  0  0
  -27.9346   -1.6155   -7.5290 C   0  0  0  0  0  0  0  0  0  0  0  0
  -28.3937   -1.3437   -6.2408 C   0  0  0  0  0  0  0  0  0  0  0  0
  -29.1533   -2.2863   -5.5298 C   0  0  0  0  0  0  0  0  0  0  0  0
  -29.5196   -1.9829   -4.1016 C   0  0  0  0  0  0  0  0  0  0  0  0
  -29.5089   -3.4951   -6.1611 C   0  0  0  0  0  0  0  0  0  0  0  0
  -30.2779   -4.5775   -5.4506 C   0  0  0  0  0  0  0  0  0  0  0  0
  -29.0708   -3.7421   -7.4833 C   0  0  0  0  0  0  0  0  0  0  0  0
  -16.1858    2.7967  -15.1838 O   0  0  0  0  0  0  0  0  0  0  0  0
  -16.1739    3.7801  -16.2093 C   0  0  0  0  0  0  0  0  0  0  0  0
  -14.9043    4.5953  -16.2840 C   0  0  0  0  0  0  0  0  0  0  0  0
  -13.8244    3.7465  -16.9883 C   0  0  0  0  0  0  0  0  0  0  0  0
  -12.6715    3.4693  -16.1306 N   0  0  0  0  0  0  0  0  0  0  0  0
  -12.6475    4.3889  -14.9765 C   0  0  0  0  0  0  0  0  0  0  0  0
  -11.3969    4.1344  -14.1089 C   0  0  0  0  0  0  0  0  0  0  0  0
  -11.3196    2.7653  -13.5646 N   0  0  0  0  0  0  0  0  0  0  0  0
  -12.3250    2.5597  -12.5239 C   0  0  0  0  0  0  0  0  0  0  0  0
  -11.4782    1.8006  -14.6738 C   0  0  0  0  0  0  0  0  0  0  0  0
  -12.6683    2.0777  -15.6276 C   0  0  0  0  0  0  0  0  0  0  0  0
 11 12  1  0  0  0
 12  1  1  0  0  0
  1  2  1  0  0  0
  1 10  2  0  0  0
  2  3  2  0  0  0
  3  4  1  0  0  0
  3  8  1  0  0  0
  4 13  1  0  0  0
  4  5  2  0  0  0
 13 15  1  0  0  0
 13 14  1  0  0  0
 15 16  1  0  0  0
 15 21  2  0  0  0
 16 17  2  0  0  0
 17 18  1  0  0  0
 18 22  1  0  0  0
 18 19  2  0  0  0
 22 23  1  0  0  0
 22 26  1  0  0  0
 23 24  2  0  0  0
 23 25  1  0  0  0
 25 28  1  0  0  0
 25 27  1  0  0  0
 28 29  1  0  0  0
 28 35  2  0  0  0
 29 30  2  0  0  0
 30 31  1  0  0  0
 31 32  1  0  0  0
 31 33  2  0  0  0
 33 34  1  0  0  0
 33 35  1  0  0  0
 19 20  1  0  0  0
 19 21  1  0  0  0
  5  6  1  0  0  0
  6  7  2  0  0  0
  7  8  1  0  0  0
  8  9  2  0  0  0
  9 10  1  0  0  0
 10 36  1  0  0  0
 36 37  1  0  0  0
 37 38  1  0  0  0
 38 39  1  0  0  0
 39 40  1  0  0  0
 40 41  1  0  0  0
 40 46  1  0  0  0
 41 42  1  0  0  0
 42 43  1  0  0  0
 43 44  1  0  0  0
 43 45  1  0  0  0
 45 46  1  0  0  0
M  END
> <minimizedAffinity>
-10.73916

$$$$
