CHEMBL1241588


 25 28  0  0  0  0  0  0  0  0999 V2000
  -28.7288   -9.3942   -8.7517 N   0  0  0  0  0  0  0  0  0  0  0  0
  -28.5758   -8.1175   -8.3558 N   0  0  0  0  0  0  0  0  0  0  0  0
  -29.7655   -7.7864   -7.8129 C   0  0  0  0  0  0  0  0  0  0  0  0
  -30.6991   -8.8660   -7.9193 C   0  0  0  0  0  0  0  0  0  0  0  0
  -32.0219   -9.1761   -7.5580 C   0  0  0  0  0  0  0  0  0  0  0  0
  -32.9127   -8.3225   -6.9206 N   0  0  0  0  0  0  0  0  0  0  0  0
  -32.4952  -10.4139   -7.8152 N   0  0  0  0  0  0  0  0  0  0  0  0
  -31.6805  -11.3120   -8.3961 C   0  0  0  0  0  0  0  0  0  0  0  0
  -30.4101  -11.1371   -8.7836 N   0  0  0  0  0  0  0  0  0  0  0  0
  -29.9809   -9.8899   -8.5209 C   0  0  0  0  0  0  0  0  0  0  0  0
  -32.4883   -7.7260   -6.2223 H   0  0  0  0  0  0  0  0  0  0  0  0
  -33.7125   -8.8530   -6.5916 H   0  0  0  0  0  0  0  0  0  0  0  0
  -29.8996   -6.5089   -7.1016 C   0  0  0  0  0  0  0  0  0  0  0  0
  -30.4460   -6.4104   -5.8229 C   0  0  0  0  0  0  0  0  0  0  0  0
  -30.3086   -5.2265   -5.0875 C   0  0  0  0  0  0  0  0  0  0  0  0
  -29.6891   -4.1144   -5.6578 C   0  0  0  0  0  0  0  0  0  0  0  0
  -29.2780   -4.1605   -6.9863 C   0  0  0  0  0  0  0  0  0  0  0  0
  -29.3771   -5.3500   -7.7027 C   0  0  0  0  0  0  0  0  0  0  0  0
  -28.7611   -3.0862   -7.6543 O   0  0  0  0  0  0  0  0  0  0  0  0
  -28.2275   -2.1141   -6.7593 C   0  0  0  0  0  0  0  0  0  0  0  0
  -29.1139   -1.8562   -5.5532 C   0  0  0  0  0  0  0  0  0  0  0  0
  -29.4937   -3.0358   -4.8419 O   0  0  0  0  0  0  0  0  0  0  0  0
  -27.0979   -9.4917  -10.6015 C   0  0  0  0  0  0  0  0  0  0  0  0
  -27.5950  -10.1230   -9.3019 C   0  0  0  0  0  0  0  0  0  0  0  0
  -26.4513  -10.2416   -8.2893 C   0  0  0  0  0  0  0  0  0  0  0  0
 23 24  1  0  0  0
 24 25  1  0  0  0
 24  1  1  0  0  0
  1  2  1  0  0  0
  1 10  1  0  0  0
  2  3  2  0  0  0
  3 13  1  0  0  0
  3  4  1  0  0  0
 13 14  1  0  0  0
 13 18  2  0  0  0
 14 15  2  0  0  0
 15 16  1  0  0  0
 16 17  2  0  0  0
 16 22  1  0  0  0
 17 18  1  0  0  0
 17 19  1  0  0  0
 19 20  1  0  0  0
 20 21  1  0  0  0
 21 22  1  0  0  0
  4  5  1  0  0  0
  4 10  2  0  0  0
  5  6  1  0  0  0
  5  7  2  0  0  0
  6 11  1  0  0  0
  6 12  1  0  0  0
  7  8  1  0  0  0
  8  9  2  0  0  0
  9 10  1  0  0  0
M  END
> <minimizedAffinity>
-7.87904

$$$$
