CHEMBL3321908


 32 36  0  0  0  0  0  0  0  0999 V2000
  -23.6766   -0.1341  -13.3532 C   0  0  0  0  0  0  0  0  0  0  0  0
  -24.6188   -0.7814  -14.0323 N   0  0  0  0  0  0  0  0  0  0  0  0
  -25.5601   -1.1988  -13.1017 C   0  0  0  0  0  0  0  0  0  0  0  0
  -26.7850   -1.8848  -13.2257 C   0  0  0  0  0  0  0  0  0  0  0  0
  -27.6115   -2.0614  -12.0804 C   0  0  0  0  0  0  0  0  0  0  0  0
  -27.2420   -1.5485  -10.8357 C   0  0  0  0  0  0  0  0  0  0  0  0
  -25.9562   -0.9843  -10.6972 C   0  0  0  0  0  0  0  0  0  0  0  0
  -25.1710   -0.8109  -11.8342 C   0  0  0  0  0  0  0  0  0  0  0  0
  -23.9372   -0.2521  -12.0068 N   0  0  0  0  0  0  0  0  0  0  0  0
  -23.3661    0.1137  -11.2639 H   0  0  0  0  0  0  0  0  0  0  0  0
  -20.2994    2.1888  -14.7582 C   0  0  0  0  0  0  0  0  0  0  0  0
  -21.4335    2.8107  -14.2138 C   0  0  0  0  0  0  0  0  0  0  0  0
  -22.5360    2.0528  -13.7809 C   0  0  0  0  0  0  0  0  0  0  0  0
  -22.5408    0.6552  -13.8774 C   0  0  0  0  0  0  0  0  0  0  0  0
  -21.4027    0.0423  -14.4371 C   0  0  0  0  0  0  0  0  0  0  0  0
  -20.3004    0.7939  -14.8695 C   0  0  0  0  0  0  0  0  0  0  0  0
  -18.4838    2.4708  -16.3161 F   0  0  0  0  0  0  0  0  0  0  0  0
  -19.0957    2.9821  -15.2124 C   0  0  0  0  0  0  0  0  0  0  0  0
  -18.1307    3.0611  -14.2533 F   0  0  0  0  0  0  0  0  0  0  0  0
  -19.4100    4.2714  -15.5252 F   0  0  0  0  0  0  0  0  0  0  0  0
  -28.0065   -1.5684   -9.6457 N   0  0  0  0  0  0  0  0  0  0  0  0
  -28.9424   -1.2654   -9.8971 H   0  0  0  0  0  0  0  0  0  0  0  0
  -28.1453   -2.4487   -8.5355 C   0  0  0  0  0  0  0  0  0  0  0  0
  -28.3250   -3.7660   -8.7138 N   0  0  0  0  0  0  0  0  0  0  0  0
  -28.4539   -4.5000   -7.5997 C   0  0  0  0  0  0  0  0  0  0  0  0
  -28.4297   -4.0558   -6.3347 N   0  0  0  0  0  0  0  0  0  0  0  0
  -28.2264   -2.7490   -6.1592 C   0  0  0  0  0  0  0  0  0  0  0  0
  -28.1903   -2.2439   -4.8621 C   0  0  0  0  0  0  0  0  0  0  0  0
  -27.9683   -0.8906   -4.5948 C   0  0  0  0  0  0  0  0  0  0  0  0
  -27.7690   -0.0109   -5.6470 C   0  0  0  0  0  0  0  0  0  0  0  0
  -27.8054   -0.4937   -6.9517 C   0  0  0  0  0  0  0  0  0  0  0  0
  -28.0505   -1.8697   -7.2351 C   0  0  0  0  0  0  0  0  0  0  0  0
 17 18  1  0  0  0
 18 19  1  0  0  0
 18 20  1  0  0  0
 18 11  1  0  0  0
 11 12  1  0  0  0
 11 16  2  0  0  0
 12 13  2  0  0  0
 13 14  1  0  0  0
 14  1  1  0  0  0
 14 15  2  0  0  0
  1  2  2  0  0  0
  1  9  1  0  0  0
  2  3  1  0  0  0
  3  4  1  0  0  0
  3  8  2  0  0  0
  4  5  2  0  0  0
  5  6  1  0  0  0
  6 21  1  0  0  0
  6  7  2  0  0  0
 21 23  1  0  0  0
 21 22  1  0  0  0
 23 24  1  0  0  0
 23 32  2  0  0  0
 24 25  2  0  0  0
 25 26  1  0  0  0
 26 27  2  0  0  0
 27 28  1  0  0  0
 27 32  1  0  0  0
 28 29  2  0  0  0
 29 30  1  0  0  0
 30 31  2  0  0  0
 31 32  1  0  0  0
  7  8  1  0  0  0
  8  9  1  0  0  0
  9 10  1  0  0  0
 15 16  1  0  0  0
M  END
> <minimizedAffinity>
-11.43475

$$$$
