CHEMBL3972173


 40 44  0  0  0  0  0  0  0  0999 V2000
  -28.1672   -3.2627   -7.0310 C   0  0  0  0  0  0  0  0  0  0  0  0
  -27.7818   -1.9477   -6.9085 C   0  0  0  0  0  0  0  0  0  0  0  0
  -27.8902   -1.1308   -8.0105 C   0  0  0  0  0  0  0  0  0  0  0  0
  -27.8850   -1.6226   -9.2738 C   0  0  0  0  0  0  0  0  0  0  0  0
  -28.1619   -0.6955  -10.1908 N   0  0  0  0  0  0  0  0  0  0  0  0
  -27.5727   -0.8406  -11.3706 C   0  0  0  0  0  0  0  0  0  0  0  0
  -26.6514   -1.8405  -11.5908 C   0  0  0  0  0  0  0  0  0  0  0  0
  -26.6510   -2.9624  -10.7458 N   0  0  0  0  0  0  0  0  0  0  0  0
  -27.3911   -2.8983   -9.4967 C   0  0  0  0  0  0  0  0  0  0  0  0
  -27.7940   -3.7961   -8.3146 C   0  0  0  0  0  0  0  0  0  0  0  0
  -25.5412   -1.3901  -12.4835 C   0  0  0  0  0  0  0  0  0  0  0  0
  -25.1774   -1.5871  -13.8459 C   0  0  0  0  0  0  0  0  0  0  0  0
  -24.1748   -0.8145  -14.2644 N   0  0  0  0  0  0  0  0  0  0  0  0
  -23.8578   -0.0621  -13.1873 N   0  0  0  0  0  0  0  0  0  0  0  0
  -24.6781   -0.3411  -12.1247 C   0  0  0  0  0  0  0  0  0  0  0  0
  -22.7854    0.9363  -13.2178 C   0  0  0  0  0  0  0  0  0  0  0  0
  -21.7973    0.7921  -14.3855 C   0  0  0  0  0  0  0  0  0  0  0  0
  -20.4447    1.3330  -14.0786 N   0  0  0  0  0  0  0  0  0  0  0  0
  -19.7416    0.6169  -14.3116 H   0  0  0  0  0  0  0  0  0  0  0  0
  -20.0373    2.7659  -14.8389 S   0  0  0  0  0  0  0  0  0  0  0  0
  -21.0327    3.0171  -15.8651 O   0  0  0  0  0  0  0  0  0  0  0  0
  -19.7620    3.7599  -13.8217 O   0  0  0  0  0  0  0  0  0  0  0  0
  -18.5987    2.3269  -15.5870 N   0  0  0  0  0  0  0  0  0  0  0  0
  -17.6212    3.4428  -15.6402 C   0  0  0  0  0  0  0  0  0  0  0  0
  -17.9719    1.0850  -15.0999 C   0  0  0  0  0  0  0  0  0  0  0  0
  -28.9473   -3.8153   -5.8902 N   0  0  0  0  0  0  0  0  0  0  0  0
  -30.5175   -7.3028   -6.7240 C   0  0  0  0  0  0  0  0  0  0  0  0
  -29.7646   -8.1337   -5.8956 C   0  0  0  0  0  0  0  0  0  0  0  0
  -28.8973   -7.5641   -4.9865 C   0  0  0  0  0  0  0  0  0  0  0  0
  -28.8265   -6.1590   -4.8867 C   0  0  0  0  0  0  0  0  0  0  0  0
  -29.3821   -5.2632   -5.8376 C   0  0  0  0  0  0  0  0  0  0  0  0
  -30.3076   -5.8892   -6.7125 C   0  0  0  0  0  0  0  0  0  0  0  0
  -32.1228   -9.0059   -7.2502 C   0  0  0  0  0  0  0  0  0  0  0  0
  -31.4614   -7.7842   -7.6058 O   0  0  0  0  0  0  0  0  0  0  0  0
  -28.0397   -8.2618   -4.1728 O   0  0  0  0  0  0  0  0  0  0  0  0
  -27.0082   -9.0240   -4.8014 C   0  0  0  0  0  0  0  0  0  0  0  0
  -29.9878   -2.8855   -5.3799 C   0  0  0  0  0  0  0  0  0  0  0  0
  -29.8322   -2.2718   -3.9938 C   0  0  0  0  0  0  0  0  0  0  0  0
  -28.9102   -2.9029   -2.9826 C   0  0  0  0  0  0  0  0  0  0  0  0
  -30.3659   -2.7432   -2.6531 C   0  0  0  0  0  0  0  0  0  0  0  0
 33 34  1  0  0  0
 34 27  1  0  0  0
 27 28  1  0  0  0
 27 32  2  0  0  0
 28 29  2  0  0  0
 29 35  1  0  0  0
 29 30  1  0  0  0
 35 36  1  0  0  0
 30 31  2  0  0  0
 31 26  1  0  0  0
 31 32  1  0  0  0
 26 37  1  0  0  0
 26  1  1  0  0  0
 37 38  1  0  0  0
 38 39  1  0  0  0
 38 40  1  0  0  0
 39 40  1  0  0  0
  1  2  1  0  0  0
  1 10  2  0  0  0
  2  3  2  0  0  0
  3  4  1  0  0  0
  4  5  1  0  0  0
  4  9  2  0  0  0
  5  6  2  0  0  0
  6  7  1  0  0  0
  7 11  1  0  0  0
  7  8  2  0  0  0
 11 12  1  0  0  0
 11 15  2  0  0  0
 12 13  2  0  0  0
 13 14  1  0  0  0
 14 16  1  0  0  0
 14 15  1  0  0  0
 16 17  1  0  0  0
 17 18  1  0  0  0
 18 20  1  0  0  0
 18 19  1  0  0  0
 20 21  2  0  0  0
 20 22  2  0  0  0
 20 23  1  0  0  0
 23 24  1  0  0  0
 23 25  1  0  0  0
  8  9  1  0  0  0
  9 10  1  0  0  0
M  END
> <minimizedAffinity>
-8.21433

$$$$
