CHEMBL3806189


 45 49  0  0  0  0  0  0  0  0999 V2000
  -26.1053   -2.2048  -11.5140 C   0  0  0  0  0  0  0  0  0  0  0  0
  -27.1887   -2.8890   -9.4200 N   0  0  0  0  0  0  0  0  0  0  0  0
  -27.2095   -1.9823  -10.4738 C   0  0  0  0  0  0  0  0  0  0  0  0
  -28.0254   -1.0755  -10.6337 O   0  0  0  0  0  0  0  0  0  0  0  0
  -26.5505   -3.6697   -9.5433 H   0  0  0  0  0  0  0  0  0  0  0  0
  -29.7046   -2.9899   -6.0064 C   0  0  0  0  0  0  0  0  0  0  0  0
  -29.9655   -3.7787   -7.1424 C   0  0  0  0  0  0  0  0  0  0  0  0
  -29.1459   -3.7563   -8.2621 C   0  0  0  0  0  0  0  0  0  0  0  0
  -28.0581   -2.9017   -8.3166 C   0  0  0  0  0  0  0  0  0  0  0  0
  -27.8318   -2.0335   -7.2414 C   0  0  0  0  0  0  0  0  0  0  0  0
  -28.6230   -2.0851   -6.0584 C   0  0  0  0  0  0  0  0  0  0  0  0
  -28.2357   -1.1387   -4.9334 C   0  0  0  0  0  0  0  0  0  0  0  0
  -27.9177   -1.7109   -3.7455 F   0  0  0  0  0  0  0  0  0  0  0  0
  -27.1698   -0.3557   -5.2667 F   0  0  0  0  0  0  0  0  0  0  0  0
  -29.2476   -0.2642   -4.6531 F   0  0  0  0  0  0  0  0  0  0  0  0
  -30.6154   -3.2149   -4.8088 C   0  0  0  0  0  0  0  0  0  0  0  0
  -30.2123   -7.7926   -6.0736 C   0  0  0  0  0  0  0  0  0  0  0  0
  -29.9923   -6.8869   -4.9466 N   0  0  0  0  0  0  0  0  0  0  0  0
  -28.9955   -5.8610   -5.2967 C   0  0  0  0  0  0  0  0  0  0  0  0
  -28.8159   -4.8146   -4.1713 C   0  0  0  0  0  0  0  0  0  0  0  0
  -30.0599   -4.1108   -3.7727 N   0  0  0  0  0  0  0  0  0  0  0  0
  -31.0474   -5.1646   -3.4259 C   0  0  0  0  0  0  0  0  0  0  0  0
  -31.2534   -6.2559   -4.5143 C   0  0  0  0  0  0  0  0  0  0  0  0
  -25.9419   -1.0550  -12.3987 N   0  0  0  0  0  0  0  0  0  0  0  0
  -26.7493   -0.7988  -12.9640 H   0  0  0  0  0  0  0  0  0  0  0  0
  -24.7304   -0.5149  -12.7926 C   0  0  0  0  0  0  0  0  0  0  0  0
  -23.9787    0.3601  -12.0105 C   0  0  0  0  0  0  0  0  0  0  0  0
  -22.8301    0.9771  -12.5236 C   0  0  0  0  0  0  0  0  0  0  0  0
  -22.3950    0.7503  -13.8418 C   0  0  0  0  0  0  0  0  0  0  0  0
  -23.1556   -0.1238  -14.6266 C   0  0  0  0  0  0  0  0  0  0  0  0
  -24.2931   -0.7329  -14.1066 C   0  0  0  0  0  0  0  0  0  0  0  0
  -25.0171   -1.5286  -14.9111 F   0  0  0  0  0  0  0  0  0  0  0  0
  -21.1838    1.3977  -14.3715 C   0  0  0  0  0  0  0  0  0  0  0  0
  -20.1418    0.6843  -14.9769 C   0  0  0  0  0  0  0  0  0  0  0  0
  -19.0026    1.3481  -15.4467 C   0  0  0  0  0  0  0  0  0  0  0  0
  -18.9230    2.7275  -15.3061 C   0  0  0  0  0  0  0  0  0  0  0  0
  -19.9078    3.4335  -14.7385 N   0  0  0  0  0  0  0  0  0  0  0  0
  -20.9961    2.7739  -14.2893 C   0  0  0  0  0  0  0  0  0  0  0  0
  -17.7841    3.3825  -15.7921 N   0  0  0  0  0  0  0  0  0  0  0  0
  -16.4928    2.9542  -15.5652 C   0  0  0  0  0  0  0  0  0  0  0  0
  -16.1243    1.9473  -14.9808 O   0  0  0  0  0  0  0  0  0  0  0  0
  -17.9262    4.2329  -16.3127 H   0  0  0  0  0  0  0  0  0  0  0  0
  -15.4603    3.8969  -16.0979 C   0  0  0  0  0  0  0  0  0  0  0  0
  -15.6589    4.5746  -17.4301 C   0  0  0  0  0  0  0  0  0  0  0  0
  -14.6506    3.4705  -17.3020 C   0  0  0  0  0  0  0  0  0  0  0  0
 17 18  1  0  0  0
 18 19  1  0  0  0
 18 23  1  0  0  0
 19 20  1  0  0  0
 20 21  1  0  0  0
 21 16  1  0  0  0
 21 22  1  0  0  0
 16  6  1  0  0  0
  6  7  1  0  0  0
  6 11  2  0  0  0
  7  8  2  0  0  0
  8  9  1  0  0  0
  9  2  1  0  0  0
  9 10  2  0  0  0
  2  3  1  0  0  0
  2  5  1  0  0  0
  3  4  2  0  0  0
  3  1  1  0  0  0
  1 24  1  0  0  0
 24 26  1  0  0  0
 24 25  1  0  0  0
 26 27  1  0  0  0
 26 31  2  0  0  0
 27 28  2  0  0  0
 28 29  1  0  0  0
 29 33  1  0  0  0
 29 30  2  0  0  0
 33 34  1  0  0  0
 33 38  2  0  0  0
 34 35  2  0  0  0
 35 36  1  0  0  0
 36 39  1  0  0  0
 36 37  2  0  0  0
 39 40  1  0  0  0
 39 42  1  0  0  0
 40 41  2  0  0  0
 40 43  1  0  0  0
 43 44  1  0  0  0
 43 45  1  0  0  0
 44 45  1  0  0  0
 37 38  1  0  0  0
 30 31  1  0  0  0
 31 32  1  0  0  0
 10 11  1  0  0  0
 11 12  1  0  0  0
 12 13  1  0  0  0
 12 14  1  0  0  0
 12 15  1  0  0  0
 22 23  1  0  0  0
M  END
> <minimizedAffinity>
-11.95203

$$$$
