CHEMBL3039504


 42 46  0  0  0  0  0  0  0  0999 V2000
  -27.6880   -2.1004   -9.0596 C   0  0  0  0  0  0  0  0  0  0  0  0
  -28.2326   -1.6165   -7.8464 C   0  0  0  0  0  0  0  0  0  0  0  0
  -28.6940   -2.4989   -6.8390 C   0  0  0  0  0  0  0  0  0  0  0  0
  -28.6735   -3.8608   -7.0857 C   0  0  0  0  0  0  0  0  0  0  0  0
  -28.1453   -4.3039   -8.3099 C   0  0  0  0  0  0  0  0  0  0  0  0
  -27.6195   -3.4736   -9.2805 C   0  0  0  0  0  0  0  0  0  0  0  0
  -28.3120   -5.6705   -8.4627 N   0  0  0  0  0  0  0  0  0  0  0  0
  -29.0487   -6.1973   -7.4235 C   0  0  0  0  0  0  0  0  0  0  0  0
  -29.6067   -7.2806   -7.4543 O   0  0  0  0  0  0  0  0  0  0  0  0
  -29.1510   -5.0879   -6.3903 C   0  0  0  0  0  0  0  0  0  0  0  0
  -29.6042   -5.3479   -5.1407 C   0  0  0  0  0  0  0  0  0  0  0  0
  -28.1525   -6.1890   -9.3139 H   0  0  0  0  0  0  0  0  0  0  0  0
  -29.8541   -4.2679   -4.1569 C   0  0  0  0  0  0  0  0  0  0  0  0
  -31.1607   -4.0196   -3.7137 C   0  0  0  0  0  0  0  0  0  0  0  0
  -31.3940   -3.1277   -2.6639 C   0  0  0  0  0  0  0  0  0  0  0  0
  -30.3248   -2.4784   -2.0485 C   0  0  0  0  0  0  0  0  0  0  0  0
  -29.0217   -2.7154   -2.4837 C   0  0  0  0  0  0  0  0  0  0  0  0
  -28.7859   -3.6075   -3.5329 C   0  0  0  0  0  0  0  0  0  0  0  0
  -27.1041   -1.2284  -10.1191 C   0  0  0  0  0  0  0  0  0  0  0  0
  -27.7972   -0.5537  -10.8656 O   0  0  0  0  0  0  0  0  0  0  0  0
  -25.2207   -1.7333  -11.4061 C   0  0  0  0  0  0  0  0  0  0  0  0
  -25.7537   -1.3044  -10.1462 O   0  0  0  0  0  0  0  0  0  0  0  0
  -29.9333   -6.5957   -4.5911 N   0  0  0  0  0  0  0  0  0  0  0  0
  -30.9082   -6.8157   -4.7881 H   0  0  0  0  0  0  0  0  0  0  0  0
  -29.1267   -7.7599   -4.7038 C   0  0  0  0  0  0  0  0  0  0  0  0
  -27.7500   -7.7259   -4.4575 C   0  0  0  0  0  0  0  0  0  0  0  0
  -26.9539   -8.8611   -4.6652 C   0  0  0  0  0  0  0  0  0  0  0  0
  -27.5249  -10.0726   -5.0753 C   0  0  0  0  0  0  0  0  0  0  0  0
  -28.9124  -10.1374   -5.2300 C   0  0  0  0  0  0  0  0  0  0  0  0
  -29.7033   -8.9911   -5.0488 C   0  0  0  0  0  0  0  0  0  0  0  0
  -26.6957  -11.1847   -5.4280 N   0  0  0  0  0  0  0  0  0  0  0  0
  -26.5811  -12.2307   -4.4157 C   0  0  0  0  0  0  0  0  0  0  0  0
  -26.0714  -11.2429   -6.6797 C   0  0  0  0  0  0  0  0  0  0  0  0
  -26.2116  -10.3606   -7.5358 O   0  0  0  0  0  0  0  0  0  0  0  0
  -25.1833  -12.4658   -7.0317 C   0  0  0  0  0  0  0  0  0  0  0  0
  -23.7401  -12.2626   -6.7864 N   0  0  0  0  0  0  0  0  0  0  0  0
  -22.9630  -12.0075   -8.0114 C   0  0  0  0  0  0  0  0  0  0  0  0
  -21.4674  -12.0776   -7.6367 C   0  0  0  0  0  0  0  0  0  0  0  0
  -21.0259  -11.0264   -6.7018 N   0  0  0  0  0  0  0  0  0  0  0  0
  -20.8181   -9.7566   -7.3892 C   0  0  0  0  0  0  0  0  0  0  0  0
  -21.9692  -10.9155   -5.5668 C   0  0  0  0  0  0  0  0  0  0  0  0
  -23.4864  -11.1174   -5.8755 C   0  0  0  0  0  0  0  0  0  0  0  0
 21 22  1  0  0  0
 22 19  1  0  0  0
 19 20  2  0  0  0
 19  1  1  0  0  0
  1  2  1  0  0  0
  1  6  2  0  0  0
  2  3  2  0  0  0
  3  4  1  0  0  0
  4  5  2  0  0  0
  4 10  1  0  0  0
  5  6  1  0  0  0
  5  7  1  0  0  0
  7  8  1  0  0  0
  7 12  1  0  0  0
  8  9  2  0  0  0
  8 10  1  0  0  0
 10 11  2  0  0  0
 11 23  1  0  0  0
 11 13  1  0  0  0
 23 25  1  0  0  0
 23 24  1  0  0  0
 25 26  1  0  0  0
 25 30  2  0  0  0
 26 27  2  0  0  0
 27 28  1  0  0  0
 28 31  1  0  0  0
 28 29  2  0  0  0
 31 32  1  0  0  0
 31 33  1  0  0  0
 33 34  2  0  0  0
 33 35  1  0  0  0
 35 36  1  0  0  0
 36 37  1  0  0  0
 36 42  1  0  0  0
 37 38  1  0  0  0
 38 39  1  0  0  0
 39 40  1  0  0  0
 39 41  1  0  0  0
 41 42  1  0  0  0
 29 30  1  0  0  0
 13 14  1  0  0  0
 13 18  2  0  0  0
 14 15  2  0  0  0
 15 16  1  0  0  0
 16 17  2  0  0  0
 17 18  1  0  0  0
M  END
> <minimizedAffinity>
-7.60326

$$$$
