CHEMBL3985563


 43 46  0  0  0  0  0  0  0  0999 V2000
  -13.0537   -3.2733  -13.2553 N   0  0  0  0  0  0  0  0  0  0  0  0
  -14.0638   -2.4990  -13.8037 C   0  0  0  0  0  0  0  0  0  0  0  0
  -15.0315   -2.9617  -14.4033 O   0  0  0  0  0  0  0  0  0  0  0  0
  -13.8729   -1.1364  -13.6157 N   0  0  0  0  0  0  0  0  0  0  0  0
  -12.6242   -2.9086  -12.4178 H   0  0  0  0  0  0  0  0  0  0  0  0
  -12.9054   -0.8447  -13.6313 H   0  0  0  0  0  0  0  0  0  0  0  0
  -14.8312   -0.2270  -14.1394 C   0  0  0  0  0  0  0  0  0  0  0  0
  -15.9860    0.0903  -13.4113 C   0  0  0  0  0  0  0  0  0  0  0  0
  -17.0082    0.8507  -13.9793 C   0  0  0  0  0  0  0  0  0  0  0  0
  -16.8559    1.3826  -15.2605 C   0  0  0  0  0  0  0  0  0  0  0  0
  -15.6954    1.0749  -15.9781 C   0  0  0  0  0  0  0  0  0  0  0  0
  -15.5522    1.5111  -17.2388 F   0  0  0  0  0  0  0  0  0  0  0  0
  -14.6736    0.2945  -15.4224 C   0  0  0  0  0  0  0  0  0  0  0  0
  -17.8184    2.1607  -15.8771 O   0  0  0  0  0  0  0  0  0  0  0  0
  -19.0573    2.2898  -15.2776 C   0  0  0  0  0  0  0  0  0  0  0  0
  -19.5863    3.5164  -14.8942 C   0  0  0  0  0  0  0  0  0  0  0  0
  -20.7928    3.5195  -14.2300 C   0  0  0  0  0  0  0  0  0  0  0  0
  -21.5110    2.4087  -14.0011 N   0  0  0  0  0  0  0  0  0  0  0  0
  -21.0450    1.2295  -14.4497 C   0  0  0  0  0  0  0  0  0  0  0  0
  -19.8136    1.1275  -15.0930 C   0  0  0  0  0  0  0  0  0  0  0  0
  -21.8277    0.0805  -14.2806 N   0  0  0  0  0  0  0  0  0  0  0  0
  -22.9881    0.0437  -13.5410 C   0  0  0  0  0  0  0  0  0  0  0  0
  -23.4947    0.9447  -12.8809 O   0  0  0  0  0  0  0  0  0  0  0  0
  -21.5231   -0.7634  -14.7403 H   0  0  0  0  0  0  0  0  0  0  0  0
  -23.7074   -1.2723  -13.6038 C   0  0  0  0  0  0  0  0  0  0  0  0
  -24.7464   -1.5927  -12.5476 C   0  0  0  0  0  0  0  0  0  0  0  0
  -23.4464   -2.3403  -12.5586 C   0  0  0  0  0  0  0  0  0  0  0  0
  -12.5575   -6.5015  -15.0888 C   0  0  0  0  0  0  0  0  0  0  0  0
  -12.6287   -5.1415  -14.7897 C   0  0  0  0  0  0  0  0  0  0  0  0
  -12.9399   -4.6654  -13.5117 C   0  0  0  0  0  0  0  0  0  0  0  0
  -13.1261   -5.5884  -12.4854 C   0  0  0  0  0  0  0  0  0  0  0  0
  -13.1017   -6.9722  -12.7634 C   0  0  0  0  0  0  0  0  0  0  0  0
  -12.8385   -7.4183  -14.0770 C   0  0  0  0  0  0  0  0  0  0  0  0
  -13.1581   -7.3305  -17.3485 C   0  0  0  0  0  0  0  0  0  0  0  0
  -14.3750   -7.1991  -17.2766 O   0  0  0  0  0  0  0  0  0  0  0  0
  -12.2294   -6.9689  -16.3858 N   0  0  0  0  0  0  0  0  0  0  0  0
  -11.2534   -6.9568  -16.6465 H   0  0  0  0  0  0  0  0  0  0  0  0
  -11.2168   -7.7987  -18.7421 C   0  0  0  0  0  0  0  0  0  0  0  0
  -12.5470   -7.8717  -18.5925 C   0  0  0  0  0  0  0  0  0  0  0  0
  -13.3604   -7.9866  -11.6765 C   0  0  0  0  0  0  0  0  0  0  0  0
  -14.0713   -7.4917  -10.6255 F   0  0  0  0  0  0  0  0  0  0  0  0
  -14.0608   -9.0631  -12.1281 F   0  0  0  0  0  0  0  0  0  0  0  0
  -12.2096   -8.4858  -11.1471 F   0  0  0  0  0  0  0  0  0  0  0  0
 38 39  2  0  0  0
 39 34  1  0  0  0
 34 35  2  0  0  0
 34 36  1  0  0  0
 36 28  1  0  0  0
 36 37  1  0  0  0
 28 29  1  0  0  0
 28 33  2  0  0  0
 29 30  2  0  0  0
 30  1  1  0  0  0
 30 31  1  0  0  0
  1  2  1  0  0  0
  1  5  1  0  0  0
  2  3  2  0  0  0
  2  4  1  0  0  0
  4  7  1  0  0  0
  4  6  1  0  0  0
  7  8  1  0  0  0
  7 13  2  0  0  0
  8  9  2  0  0  0
  9 10  1  0  0  0
 10 14  1  0  0  0
 10 11  2  0  0  0
 14 15  1  0  0  0
 15 16  1  0  0  0
 15 20  2  0  0  0
 16 17  2  0  0  0
 17 18  1  0  0  0
 18 19  2  0  0  0
 19 21  1  0  0  0
 19 20  1  0  0  0
 21 22  1  0  0  0
 21 24  1  0  0  0
 22 23  2  0  0  0
 22 25  1  0  0  0
 25 26  1  0  0  0
 25 27  1  0  0  0
 26 27  1  0  0  0
 11 12  1  0  0  0
 11 13  1  0  0  0
 31 32  2  0  0  0
 32 40  1  0  0  0
 32 33  1  0  0  0
 40 41  1  0  0  0
 40 42  1  0  0  0
 40 43  1  0  0  0
M  END
> <minimizedAffinity>
-9.00421

$$$$
