CHEMBL521887


 35 39  0  0  0  0  0  0  0  0999 V2000
  -26.4105   -1.6989  -10.1547 N   0  0  0  0  0  0  0  0  0  0  0  0
  -27.6151   -1.3842   -9.5365 C   0  0  0  0  0  0  0  0  0  0  0  0
  -28.6164   -0.9234  -10.0914 O   0  0  0  0  0  0  0  0  0  0  0  0
  -25.7047   -2.1535   -9.5950 H   0  0  0  0  0  0  0  0  0  0  0  0
  -25.1083   -1.1533  -15.7446 C   0  0  0  0  0  0  0  0  0  0  0  0
  -25.3722   -1.2461  -14.2654 C   0  0  0  0  0  0  0  0  0  0  0  0
  -26.5983   -1.8166  -13.8869 C   0  0  0  0  0  0  0  0  0  0  0  0
  -26.9721   -1.9376  -12.5500 C   0  0  0  0  0  0  0  0  0  0  0  0
  -26.1095   -1.5475  -11.5352 C   0  0  0  0  0  0  0  0  0  0  0  0
  -24.8900   -0.9550  -11.9039 C   0  0  0  0  0  0  0  0  0  0  0  0
  -24.5159   -0.7313  -13.2651 C   0  0  0  0  0  0  0  0  0  0  0  0
  -23.3764    0.1897  -13.5598 C   0  0  0  0  0  0  0  0  0  0  0  0
  -23.4979    1.5368  -13.1587 C   0  0  0  0  0  0  0  0  0  0  0  0
  -22.6376    2.5247  -13.6235 C   0  0  0  0  0  0  0  0  0  0  0  0
  -21.5447    2.1679  -14.3907 C   0  0  0  0  0  0  0  0  0  0  0  0
  -20.6899    3.1544  -14.8598 C   0  0  0  0  0  0  0  0  0  0  0  0
  -19.3690    2.8084  -14.7380 C   0  0  0  0  0  0  0  0  0  0  0  0
  -18.9369    1.5432  -14.9074 N   0  0  0  0  0  0  0  0  0  0  0  0
  -19.8939    0.5788  -14.9306 C   0  0  0  0  0  0  0  0  0  0  0  0
  -21.2227    0.8193  -14.5659 C   0  0  0  0  0  0  0  0  0  0  0  0
  -22.1985   -0.1593  -14.2493 C   0  0  0  0  0  0  0  0  0  0  0  0
  -27.7129   -1.6527   -8.0709 C   0  0  0  0  0  0  0  0  0  0  0  0
  -27.5927   -0.6363   -7.1195 C   0  0  0  0  0  0  0  0  0  0  0  0
  -27.7287   -0.9301   -5.7583 C   0  0  0  0  0  0  0  0  0  0  0  0
  -28.0335   -2.2308   -5.3222 C   0  0  0  0  0  0  0  0  0  0  0  0
  -28.1626   -3.2362   -6.2962 C   0  0  0  0  0  0  0  0  0  0  0  0
  -28.0097   -2.9582   -7.6384 C   0  0  0  0  0  0  0  0  0  0  0  0
  -28.3468   -2.4717   -3.8564 C   0  0  0  0  0  0  0  0  0  0  0  0
  -29.1768   -3.6709   -3.6866 N   0  0  0  0  0  0  0  0  0  0  0  0
  -30.4038   -3.6291   -4.5063 C   0  0  0  0  0  0  0  0  0  0  0  0
  -31.2874   -4.8700   -4.2586 C   0  0  0  0  0  0  0  0  0  0  0  0
  -30.6085   -6.1598   -4.4879 N   0  0  0  0  0  0  0  0  0  0  0  0
  -30.4109   -6.4060   -5.9134 C   0  0  0  0  0  0  0  0  0  0  0  0
  -29.3281   -6.1661   -3.7489 C   0  0  0  0  0  0  0  0  0  0  0  0
  -28.4360   -4.9134   -3.9564 C   0  0  0  0  0  0  0  0  0  0  0  0
  5  6  1  0  0  0
  6  7  1  0  0  0
  6 11  2  0  0  0
  7  8  2  0  0  0
  8  9  1  0  0  0
  9  1  1  0  0  0
  9 10  2  0  0  0
  1  2  1  0  0  0
  1  4  1  0  0  0
  2  3  2  0  0  0
  2 22  1  0  0  0
 22 23  1  0  0  0
 22 27  2  0  0  0
 23 24  2  0  0  0
 24 25  1  0  0  0
 25 28  1  0  0  0
 25 26  2  0  0  0
 28 29  1  0  0  0
 29 30  1  0  0  0
 29 35  1  0  0  0
 30 31  1  0  0  0
 31 32  1  0  0  0
 32 33  1  0  0  0
 32 34  1  0  0  0
 34 35  1  0  0  0
 26 27  1  0  0  0
 10 11  1  0  0  0
 11 12  1  0  0  0
 12 13  1  0  0  0
 12 21  2  0  0  0
 13 14  2  0  0  0
 14 15  1  0  0  0
 15 16  1  0  0  0
 15 20  2  0  0  0
 16 17  2  0  0  0
 17 18  1  0  0  0
 18 19  2  0  0  0
 19 20  1  0  0  0
 20 21  1  0  0  0
M  END
> <minimizedAffinity>
-12.18903

$$$$
