CHEMBL3964574


 37 40  0  0  0  0  0  0  0  0999 V2000
  -15.6306    2.4889  -16.6029 N   0  0  0  0  0  0  0  0  0  0  0  0
  -16.8516    2.3488  -15.8361 C   0  0  0  0  0  0  0  0  0  0  0  0
  -16.9623    1.1428  -15.2032 C   0  0  0  0  0  0  0  0  0  0  0  0
  -18.2238    0.7117  -14.9279 C   0  0  0  0  0  0  0  0  0  0  0  0
  -19.3521    1.4795  -15.0785 C   0  0  0  0  0  0  0  0  0  0  0  0
  -20.2418    0.6166  -15.1321 N   0  0  0  0  0  0  0  0  0  0  0  0
  -20.9659    0.7009  -14.0318 C   0  0  0  0  0  0  0  0  0  0  0  0
  -21.7476    1.7651  -13.9285 C   0  0  0  0  0  0  0  0  0  0  0  0
  -21.1254    2.9176  -14.5397 N   0  0  0  0  0  0  0  0  0  0  0  0
  -19.5464    2.8070  -15.0662 C   0  0  0  0  0  0  0  0  0  0  0  0
  -18.0608    3.2485  -15.6528 C   0  0  0  0  0  0  0  0  0  0  0  0
  -23.1771    1.0550  -13.6625 C   0  0  0  0  0  0  0  0  0  0  0  0
  -23.4728   -0.1983  -14.4125 C   0  0  0  0  0  0  0  0  0  0  0  0
  -24.2010   -1.1160  -13.7927 N   0  0  0  0  0  0  0  0  0  0  0  0
  -24.5191   -0.5405  -12.6350 N   0  0  0  0  0  0  0  0  0  0  0  0
  -25.3181   -1.3635  -11.7319 C   0  0  0  0  0  0  0  0  0  0  0  0
  -23.9126    0.7307  -12.4897 C   0  0  0  0  0  0  0  0  0  0  0  0
  -13.2209    5.3350  -16.2381 C   0  0  0  0  0  0  0  0  0  0  0  0
  -13.2154    5.8359  -17.5398 C   0  0  0  0  0  0  0  0  0  0  0  0
  -14.0101    5.2525  -18.5165 C   0  0  0  0  0  0  0  0  0  0  0  0
  -14.8472    4.1923  -18.1664 C   0  0  0  0  0  0  0  0  0  0  0  0
  -14.8745    3.6463  -16.8712 C   0  0  0  0  0  0  0  0  0  0  0  0
  -14.0592    4.2546  -15.9068 C   0  0  0  0  0  0  0  0  0  0  0  0
  -12.0512    7.1908  -15.3070 C   0  0  0  0  0  0  0  0  0  0  0  0
  -12.4256    5.8144  -15.2277 O   0  0  0  0  0  0  0  0  0  0  0  0
  -14.0397    5.6141  -19.8370 O   0  0  0  0  0  0  0  0  0  0  0  0
  -13.4768    6.8847  -20.1496 C   0  0  0  0  0  0  0  0  0  0  0  0
  -14.9319    1.1254  -16.9602 C   0  0  0  0  0  0  0  0  0  0  0  0
  -13.6714    0.5727  -16.1978 C   0  0  0  0  0  0  0  0  0  0  0  0
  -13.3649    1.1979  -14.8728 N   0  0  0  0  0  0  0  0  0  0  0  0
  -13.8095    2.1097  -14.7970 H   0  0  0  0  0  0  0  0  0  0  0  0
  -13.5188    0.1993  -13.5184 S   0  0  0  0  0  0  0  0  0  0  0  0
  -12.1899   -0.0670  -13.0474 O   0  0  0  0  0  0  0  0  0  0  0  0
  -14.5105    0.8025  -12.6567 O   0  0  0  0  0  0  0  0  0  0  0  0
  -14.1823   -1.3447  -14.1862 C   0  0  0  0  0  0  0  0  0  0  0  0
  -13.1429   -2.4535  -14.1285 C   0  0  0  0  0  0  0  0  0  0  0  0
  -15.4070   -1.7217  -13.3517 C   0  0  0  0  0  0  0  0  0  0  0  0
 24 25  1  0  0  0
 25 18  1  0  0  0
 18 19  1  0  0  0
 18 23  2  0  0  0
 19 20  2  0  0  0
 20 26  1  0  0  0
 20 21  1  0  0  0
 26 27  1  0  0  0
 21 22  2  0  0  0
 22  1  1  0  0  0
 22 23  1  0  0  0
  1 28  1  0  0  0
  1  2  1  0  0  0
 28 29  1  0  0  0
 29 30  1  0  0  0
 30 32  1  0  0  0
 30 31  1  0  0  0
 32 33  2  0  0  0
 32 34  2  0  0  0
 32 35  1  0  0  0
 35 36  1  0  0  0
 35 37  1  0  0  0
  2  3  1  0  0  0
  2 11  2  0  0  0
  3  4  2  0  0  0
  4  5  1  0  0  0
  5  6  1  0  0  0
  5 10  2  0  0  0
  6  7  2  0  0  0
  7  8  1  0  0  0
  8 12  1  0  0  0
  8  9  2  0  0  0
 12 13  1  0  0  0
 12 17  2  0  0  0
 13 14  2  0  0  0
 14 15  1  0  0  0
 15 16  1  0  0  0
 15 17  1  0  0  0
  9 10  1  0  0  0
 10 11  1  0  0  0
M  END
> <minimizedAffinity>
-8.11795

$$$$
