CHEMBL1922225


 31 33  0  0  0  0  0  0  0  0999 V2000
  -28.7189   -6.0103   -6.4555 C   0  0  0  0  0  0  0  0  0  0  0  0
  -28.4604   -6.0170   -4.9318 C   0  0  0  0  0  0  0  0  0  0  0  0
  -28.0033   -7.4274   -4.5870 C   0  0  0  0  0  0  0  0  0  0  0  0
  -27.9056   -8.1726   -5.9152 C   0  0  0  0  0  0  0  0  0  0  0  0
  -27.9610   -9.7090   -5.9384 C   0  0  0  0  0  0  0  0  0  0  0  0
  -27.8175  -10.1304   -7.4120 C   0  0  0  0  0  0  0  0  0  0  0  0
  -27.0807  -11.0494   -7.7716 O   0  0  0  0  0  0  0  0  0  0  0  0
  -28.7208   -9.4462   -8.4170 C   0  0  0  0  0  0  0  0  0  0  0  0
  -28.7437   -7.9307   -8.2356 C   0  0  0  0  0  0  0  0  0  0  0  0
  -29.0136   -7.5092   -6.7778 C   0  0  0  0  0  0  0  0  0  0  0  0
  -30.4430   -7.9126   -6.3408 C   0  0  0  0  0  0  0  0  0  0  0  0
  -29.7492   -4.9251   -6.8550 C   0  0  0  0  0  0  0  0  0  0  0  0
  -29.1692   -3.9519   -7.8812 C   0  0  0  0  0  0  0  0  0  0  0  0
  -30.2232   -4.1649   -5.5902 C   0  0  0  0  0  0  0  0  0  0  0  0
  -30.1162   -2.6386   -5.7131 C   0  0  0  0  0  0  0  0  0  0  0  0
  -29.5663   -2.5840   -3.2963 C   0  0  0  0  0  0  0  0  0  0  0  0
  -29.4937   -1.9856   -4.5007 C   0  0  0  0  0  0  0  0  0  0  0  0
  -28.7797   -0.6564   -4.7113 C   0  0  0  0  0  0  0  0  0  0  0  0
  -27.4329   -0.8574   -5.4092 C   0  0  0  0  0  0  0  0  0  0  0  0
  -29.6499    0.3467   -5.4681 C   0  0  0  0  0  0  0  0  0  0  0  0
  -26.8719  -10.3880   -5.0871 C   0  0  0  0  0  0  0  0  0  0  0  0
  -25.5184   -9.6971   -5.1926 C   0  0  0  0  0  0  0  0  0  0  0  0
  -24.4426  -10.3490   -4.3625 C   0  0  0  0  0  0  0  0  0  0  0  0
  -24.7646  -10.7362   -3.0452 C   0  0  0  0  0  0  0  0  0  0  0  0
  -23.8263  -11.3951   -2.2747 C   0  0  0  0  0  0  0  0  0  0  0  0
  -24.1063  -11.7961   -1.0010 O   0  0  0  0  0  0  0  0  0  0  0  0
  -22.5694  -11.6791   -2.7869 C   0  0  0  0  0  0  0  0  0  0  0  0
  -22.2459  -11.2840   -4.0876 C   0  0  0  0  0  0  0  0  0  0  0  0
  -23.1715  -10.6167   -4.8896 C   0  0  0  0  0  0  0  0  0  0  0  0
  -22.8067  -10.1995   -6.2908 C   0  0  0  0  0  0  0  0  0  0  0  0
  -25.0036  -11.4998   -0.7739 H   0  0  0  0  0  0  0  0  0  0  0  0
 16 17  2  0  0  0
 17 15  1  0  0  0
 17 18  1  0  0  0
 15 14  1  0  0  0
 14 12  1  0  0  0
 12 13  1  0  0  0
 12  1  1  0  0  0
  1  2  1  0  0  0
  1 10  1  0  0  0
  2  3  1  0  0  0
  3  4  1  0  0  0
  4  5  1  0  0  0
  4 10  1  0  0  0
  5 21  1  0  0  0
  5  6  1  0  0  0
 21 22  1  0  0  0
 22 23  1  0  0  0
 23 24  1  0  0  0
 23 29  2  0  0  0
 24 25  2  0  0  0
 25 26  1  0  0  0
 25 27  1  0  0  0
 26 31  1  0  0  0
 27 28  2  0  0  0
 28 29  1  0  0  0
 29 30  1  0  0  0
  6  7  2  0  0  0
  6  8  1  0  0  0
  8  9  1  0  0  0
  9 10  1  0  0  0
 10 11  1  0  0  0
 18 19  1  0  0  0
 18 20  1  0  0  0
M  END
> <minimizedAffinity>
-8.58938

$$$$
