CHEMBL3907195


 37 41  0  0  0  0  0  0  0  0999 V2000
  -12.1950   -5.1988  -13.2256 N   0  0  0  0  0  0  0  0  0  0  0  0
  -11.9705   -3.8205  -13.6325 C   0  0  0  0  0  0  0  0  0  0  0  0
  -10.7881   -3.2727  -13.1597 C   0  0  0  0  0  0  0  0  0  0  0  0
  -10.6981   -1.9330  -12.8762 C   0  0  0  0  0  0  0  0  0  0  0  0
  -11.7032   -1.0580  -13.2343 C   0  0  0  0  0  0  0  0  0  0  0  0
  -11.5544    0.1608  -12.7102 N   0  0  0  0  0  0  0  0  0  0  0  0
  -12.3734    1.1090  -13.1692 C   0  0  0  0  0  0  0  0  0  0  0  0
  -13.2531    0.8751  -14.2032 C   0  0  0  0  0  0  0  0  0  0  0  0
  -13.5070   -0.4104  -14.6445 N   0  0  0  0  0  0  0  0  0  0  0  0
  -12.7463   -1.4511  -14.0888 C   0  0  0  0  0  0  0  0  0  0  0  0
  -12.9018   -2.8994  -14.2111 C   0  0  0  0  0  0  0  0  0  0  0  0
  -13.7278    2.0684  -14.8970 C   0  0  0  0  0  0  0  0  0  0  0  0
  -13.2717    3.4138  -14.7905 C   0  0  0  0  0  0  0  0  0  0  0  0
  -14.1051    4.3011  -15.3493 N   0  0  0  0  0  0  0  0  0  0  0  0
  -15.1125    3.5364  -15.8027 N   0  0  0  0  0  0  0  0  0  0  0  0
  -16.0870    4.0793  -16.7189 C   0  0  0  0  0  0  0  0  0  0  0  0
  -15.0111    2.2301  -15.4047 C   0  0  0  0  0  0  0  0  0  0  0  0
  -12.5989   -8.7765  -14.2846 C   0  0  0  0  0  0  0  0  0  0  0  0
  -13.3620   -8.6291  -15.4424 C   0  0  0  0  0  0  0  0  0  0  0  0
  -13.6680   -7.3562  -15.9171 C   0  0  0  0  0  0  0  0  0  0  0  0
  -13.2198   -6.2225  -15.2235 C   0  0  0  0  0  0  0  0  0  0  0  0
  -12.4688   -6.3202  -14.0471 C   0  0  0  0  0  0  0  0  0  0  0  0
  -12.1429   -7.6243  -13.6083 C   0  0  0  0  0  0  0  0  0  0  0  0
  -12.1007  -10.0195  -12.3014 C   0  0  0  0  0  0  0  0  0  0  0  0
  -12.2826   -9.9904  -13.7189 O   0  0  0  0  0  0  0  0  0  0  0  0
  -14.4247   -7.0760  -17.0252 O   0  0  0  0  0  0  0  0  0  0  0  0
  -13.7282   -6.9031  -18.2542 C   0  0  0  0  0  0  0  0  0  0  0  0
  -12.9195   -5.1239  -11.8869 C   0  0  0  0  0  0  0  0  0  0  0  0
  -14.3051   -5.8178  -11.6885 C   0  0  0  0  0  0  0  0  0  0  0  0
  -15.5130   -5.0280  -11.2715 N   0  0  0  0  0  0  0  0  0  0  0  0
  -16.7201   -5.5194  -11.9621 C   0  0  0  0  0  0  0  0  0  0  0  0
  -16.6239   -4.9323  -13.3576 C   0  0  0  0  0  0  0  0  0  0  0  0
  -16.1690   -3.5135  -13.0792 C   0  0  0  0  0  0  0  0  0  0  0  0
  -15.3804   -3.6046  -11.7624 C   0  0  0  0  0  0  0  0  0  0  0  0
  -15.9212   -2.5526  -10.7661 C   0  0  0  0  0  0  0  0  0  0  0  0
  -15.8333   -3.0193   -9.4264 O   0  0  0  0  0  0  0  0  0  0  0  0
  -16.3424   -3.8447   -9.4103 H   0  0  0  0  0  0  0  0  0  0  0  0
 24 25  1  0  0  0
 25 18  1  0  0  0
 18 19  1  0  0  0
 18 23  2  0  0  0
 19 20  2  0  0  0
 20 26  1  0  0  0
 20 21  1  0  0  0
 26 27  1  0  0  0
 21 22  2  0  0  0
 22  1  1  0  0  0
 22 23  1  0  0  0
  1 28  1  0  0  0
  1  2  1  0  0  0
 28 29  1  0  0  0
 29 30  1  0  0  0
 30 31  1  0  0  0
 30 34  1  0  0  0
 31 32  1  0  0  0
 32 33  1  0  0  0
 33 34  1  0  0  0
 34 35  1  0  0  0
 35 36  1  0  0  0
 36 37  1  0  0  0
  2  3  1  0  0  0
  2 11  2  0  0  0
  3  4  2  0  0  0
  4  5  1  0  0  0
  5  6  1  0  0  0
  5 10  2  0  0  0
  6  7  2  0  0  0
  7  8  1  0  0  0
  8 12  1  0  0  0
  8  9  2  0  0  0
 12 13  1  0  0  0
 12 17  2  0  0  0
 13 14  2  0  0  0
 14 15  1  0  0  0
 15 16  1  0  0  0
 15 17  1  0  0  0
  9 10  1  0  0  0
 10 11  1  0  0  0
M  END
> <minimizedAffinity>
-7.45940

$$$$
