CHEMBL1956888


 28 31  0  0  0  0  0  0  0  0999 V2000
  -13.7901    0.7684  -18.1750 N   0  0  0  0  0  0  0  0  0  0  0  0
  -14.3458    0.6544  -16.9147 C   0  0  0  0  0  0  0  0  0  0  0  0
  -13.6576   -0.0845  -16.0375 N   0  0  0  0  0  0  0  0  0  0  0  0
  -14.1116   -0.2261  -14.7656 C   0  0  0  0  0  0  0  0  0  0  0  0
  -15.3186    0.4073  -14.4307 C   0  0  0  0  0  0  0  0  0  0  0  0
  -16.1307    0.5247  -13.2676 C   0  0  0  0  0  0  0  0  0  0  0  0
  -17.2406    1.2674  -13.6067 C   0  0  0  0  0  0  0  0  0  0  0  0
  -17.1396    1.5954  -14.9391 N   0  0  0  0  0  0  0  0  0  0  0  0
  -15.9627    1.0997  -15.4465 C   0  0  0  0  0  0  0  0  0  0  0  0
  -15.5223    1.2527  -16.7063 N   0  0  0  0  0  0  0  0  0  0  0  0
  -13.1467    0.0024  -18.3209 H   0  0  0  0  0  0  0  0  0  0  0  0
  -14.5131    0.9125  -18.8630 H   0  0  0  0  0  0  0  0  0  0  0  0
  -13.3655   -0.9628  -13.8313 N   0  0  0  0  0  0  0  0  0  0  0  0
  -13.0145   -0.4073  -13.0626 H   0  0  0  0  0  0  0  0  0  0  0  0
  -13.4899   -2.3295  -13.5139 C   0  0  0  0  0  0  0  0  0  0  0  0
  -12.4748   -3.2579  -13.7814 C   0  0  0  0  0  0  0  0  0  0  0  0
  -12.6283   -4.6090  -13.4619 C   0  0  0  0  0  0  0  0  0  0  0  0
  -13.7951   -5.0482  -12.8434 C   0  0  0  0  0  0  0  0  0  0  0  0
  -14.8016   -4.1309  -12.5514 C   0  0  0  0  0  0  0  0  0  0  0  0
  -16.3781   -4.7202  -11.6882 Br  0  0  0  0  0  0  0  0  0  0  0  0
  -14.6573   -2.7821  -12.8856 C   0  0  0  0  0  0  0  0  0  0  0  0
  -18.1124    2.3876  -15.6789 C   0  0  0  0  0  0  0  0  0  0  0  0
  -19.5126    2.1774  -15.1564 C   0  0  0  0  0  0  0  0  0  0  0  0
  -20.2858    3.2599  -14.7095 C   0  0  0  0  0  0  0  0  0  0  0  0
  -21.5658    3.0519  -14.1911 C   0  0  0  0  0  0  0  0  0  0  0  0
  -22.0872    1.7620  -14.1155 C   0  0  0  0  0  0  0  0  0  0  0  0
  -21.3332    0.6798  -14.5646 C   0  0  0  0  0  0  0  0  0  0  0  0
  -20.0523    0.8851  -15.0803 C   0  0  0  0  0  0  0  0  0  0  0  0
  1  2  1  0  0  0
  1 11  1  0  0  0
  1 12  1  0  0  0
  2  3  1  0  0  0
  2 10  2  0  0  0
  3  4  2  0  0  0
  4 13  1  0  0  0
  4  5  1  0  0  0
 13 15  1  0  0  0
 13 14  1  0  0  0
 15 16  1  0  0  0
 15 21  2  0  0  0
 16 17  2  0  0  0
 17 18  1  0  0  0
 18 19  2  0  0  0
 19 20  1  0  0  0
 19 21  1  0  0  0
  5  6  1  0  0  0
  5  9  2  0  0  0
  6  7  2  0  0  0
  7  8  1  0  0  0
  8 22  1  0  0  0
  8  9  1  0  0  0
 22 23  1  0  0  0
 23 24  1  0  0  0
 23 28  2  0  0  0
 24 25  2  0  0  0
 25 26  1  0  0  0
 26 27  2  0  0  0
 27 28  1  0  0  0
  9 10  1  0  0  0
M  END
> <minimizedAffinity>
-8.02362

$$$$
