CHEMBL369014


 29 32  0  0  0  0  0  0  0  0999 V2000
  -17.1840    2.5182  -15.5071 C   0  0  0  0  0  0  0  0  0  0  0  0
  -16.8368    3.5390  -16.3712 C   0  0  0  0  0  0  0  0  0  0  0  0
  -15.4654    3.5463  -16.5543 N   0  0  0  0  0  0  0  0  0  0  0  0
  -14.9330    2.5153  -15.7843 C   0  0  0  0  0  0  0  0  0  0  0  0
  -13.6257    2.2045  -15.6823 N   0  0  0  0  0  0  0  0  0  0  0  0
  -13.3899    1.2172  -14.8167 C   0  0  0  0  0  0  0  0  0  0  0  0
  -14.2797    0.5564  -14.0678 N   0  0  0  0  0  0  0  0  0  0  0  0
  -15.5784    0.8990  -14.1580 C   0  0  0  0  0  0  0  0  0  0  0  0
  -16.4123    0.2301  -13.2911 N   0  0  0  0  0  0  0  0  0  0  0  0
  -15.9648    1.9003  -15.0744 C   0  0  0  0  0  0  0  0  0  0  0  0
  -16.0011   -0.5941  -12.8730 H   0  0  0  0  0  0  0  0  0  0  0  0
  -17.4100    0.3180  -13.3362 H   0  0  0  0  0  0  0  0  0  0  0  0
  -21.1823    1.6151  -14.3288 C   0  0  0  0  0  0  0  0  0  0  0  0
  -20.3702    0.6236  -14.8858 C   0  0  0  0  0  0  0  0  0  0  0  0
  -19.0883    0.9444  -15.3370 C   0  0  0  0  0  0  0  0  0  0  0  0
  -18.5645    2.2305  -15.1595 C   0  0  0  0  0  0  0  0  0  0  0  0
  -19.3964    3.2288  -14.6305 C   0  0  0  0  0  0  0  0  0  0  0  0
  -20.6999    2.9264  -14.2288 C   0  0  0  0  0  0  0  0  0  0  0  0
  -22.5721    1.2506  -13.9553 C   0  0  0  0  0  0  0  0  0  0  0  0
  -23.3647    2.0251  -13.4457 O   0  0  0  0  0  0  0  0  0  0  0  0
  -22.7452   -0.0808  -14.1328 O   0  0  0  0  0  0  0  0  0  0  0  0
  -22.9493   -1.2888  -12.0928 C   0  0  0  0  0  0  0  0  0  0  0  0
  -23.7074   -0.6909  -13.2668 C   0  0  0  0  0  0  0  0  0  0  0  0
  -14.7473    4.4782  -17.3657 C   0  0  0  0  0  0  0  0  0  0  0  0
  -15.1343    4.7029  -18.6972 C   0  0  0  0  0  0  0  0  0  0  0  0
  -14.4722    5.6658  -19.4679 C   0  0  0  0  0  0  0  0  0  0  0  0
  -13.4089    6.3877  -18.9288 C   0  0  0  0  0  0  0  0  0  0  0  0
  -13.0008    6.1457  -17.6204 C   0  0  0  0  0  0  0  0  0  0  0  0
  -13.6685    5.1993  -16.8407 C   0  0  0  0  0  0  0  0  0  0  0  0
 22 23  1  0  0  0
 23 21  1  0  0  0
 21 19  1  0  0  0
 19 20  2  0  0  0
 19 13  1  0  0  0
 13 14  1  0  0  0
 13 18  2  0  0  0
 14 15  2  0  0  0
 15 16  1  0  0  0
 16  1  1  0  0  0
 16 17  2  0  0  0
  1  2  2  0  0  0
  1 10  1  0  0  0
  2  3  1  0  0  0
  3 24  1  0  0  0
  3  4  1  0  0  0
 24 25  1  0  0  0
 24 29  2  0  0  0
 25 26  2  0  0  0
 26 27  1  0  0  0
 27 28  2  0  0  0
 28 29  1  0  0  0
  4  5  1  0  0  0
  4 10  2  0  0  0
  5  6  2  0  0  0
  6  7  1  0  0  0
  7  8  2  0  0  0
  8  9  1  0  0  0
  8 10  1  0  0  0
  9 11  1  0  0  0
  9 12  1  0  0  0
 17 18  1  0  0  0
M  END
> <minimizedAffinity>
-8.52403

$$$$
