CHEMBL244288


 39 42  0  0  0  0  0  0  0  0999 V2000
  -29.8909   -6.0464   -5.4636 C   0  0  0  0  0  0  0  0  0  0  0  0
  -28.8073   -6.5815   -4.7674 C   0  0  0  0  0  0  0  0  0  0  0  0
  -28.3797   -7.8856   -5.0307 C   0  0  0  0  0  0  0  0  0  0  0  0
  -29.0295   -8.6621   -6.0004 C   0  0  0  0  0  0  0  0  0  0  0  0
  -30.1746   -8.1524   -6.6243 C   0  0  0  0  0  0  0  0  0  0  0  0
  -30.6164   -6.8589   -6.3385 C   0  0  0  0  0  0  0  0  0  0  0  0
  -30.1852   -4.7208   -5.2180 O   0  0  0  0  0  0  0  0  0  0  0  0
  -27.0095   -2.0328   -9.3008 C   0  0  0  0  0  0  0  0  0  0  0  0
  -27.2125   -1.2359   -8.2842 N   0  0  0  0  0  0  0  0  0  0  0  0
  -28.0254   -1.9214   -7.4231 C   0  0  0  0  0  0  0  0  0  0  0  0
  -28.5513   -1.5236   -6.1890 C   0  0  0  0  0  0  0  0  0  0  0  0
  -29.3256   -2.4384   -5.4651 C   0  0  0  0  0  0  0  0  0  0  0  0
  -29.5179   -3.7454   -5.9368 C   0  0  0  0  0  0  0  0  0  0  0  0
  -29.0626   -4.1308   -7.2066 C   0  0  0  0  0  0  0  0  0  0  0  0
  -28.3174   -3.1888   -7.9193 C   0  0  0  0  0  0  0  0  0  0  0  0
  -27.7098   -3.2019   -9.1485 N   0  0  0  0  0  0  0  0  0  0  0  0
  -27.7233   -3.9681   -9.8018 H   0  0  0  0  0  0  0  0  0  0  0  0
  -26.7758   -1.6573  -11.6499 C   0  0  0  0  0  0  0  0  0  0  0  0
  -27.9538   -1.6426  -11.9720 O   0  0  0  0  0  0  0  0  0  0  0  0
  -26.2315   -1.8057  -10.4028 N   0  0  0  0  0  0  0  0  0  0  0  0
  -25.2374   -1.6642  -10.3339 H   0  0  0  0  0  0  0  0  0  0  0  0
  -24.8343   -0.4361  -12.1279 C   0  0  0  0  0  0  0  0  0  0  0  0
  -25.7577   -1.4508  -12.5355 O   0  0  0  0  0  0  0  0  0  0  0  0
  -28.4772  -10.0069   -6.4037 C   0  0  0  0  0  0  0  0  0  0  0  0
  -27.2336  -10.5080   -5.6983 C   0  0  0  0  0  0  0  0  0  0  0  0
  -27.2979  -11.5295   -5.0113 O   0  0  0  0  0  0  0  0  0  0  0  0
  -26.0707   -9.7902   -5.9019 N   0  0  0  0  0  0  0  0  0  0  0  0
  -26.1765   -8.7927   -6.0660 H   0  0  0  0  0  0  0  0  0  0  0  0
  -24.8404  -10.1931   -5.3399 C   0  0  0  0  0  0  0  0  0  0  0  0
  -23.7988  -10.7005   -6.1253 C   0  0  0  0  0  0  0  0  0  0  0  0
  -22.6003  -11.1296   -5.5311 C   0  0  0  0  0  0  0  0  0  0  0  0
  -22.4782  -11.0749   -4.1314 C   0  0  0  0  0  0  0  0  0  0  0  0
  -23.5097  -10.5514   -3.3488 C   0  0  0  0  0  0  0  0  0  0  0  0
  -24.6674  -10.0851   -3.9602 C   0  0  0  0  0  0  0  0  0  0  0  0
  -25.6583   -9.5919   -3.2022 F   0  0  0  0  0  0  0  0  0  0  0  0
  -21.4536  -11.6390   -6.3713 C   0  0  0  0  0  0  0  0  0  0  0  0
  -20.6024  -12.4645   -5.7027 F   0  0  0  0  0  0  0  0  0  0  0  0
  -21.8879  -12.3520   -7.4488 F   0  0  0  0  0  0  0  0  0  0  0  0
  -20.6874  -10.6337   -6.8764 F   0  0  0  0  0  0  0  0  0  0  0  0
 22 23  1  0  0  0
 23 18  1  0  0  0
 18 19  2  0  0  0
 18 20  1  0  0  0
 20  8  1  0  0  0
 20 21  1  0  0  0
  8  9  2  0  0  0
  8 16  1  0  0  0
  9 10  1  0  0  0
 10 11  1  0  0  0
 10 15  2  0  0  0
 11 12  2  0  0  0
 12 13  1  0  0  0
 13  7  1  0  0  0
 13 14  2  0  0  0
  7  1  1  0  0  0
  1  2  1  0  0  0
  1  6  2  0  0  0
  2  3  2  0  0  0
  3  4  1  0  0  0
  4 24  1  0  0  0
  4  5  2  0  0  0
 24 25  1  0  0  0
 25 26  2  0  0  0
 25 27  1  0  0  0
 27 29  1  0  0  0
 27 28  1  0  0  0
 29 30  1  0  0  0
 29 34  2  0  0  0
 30 31  2  0  0  0
 31 36  1  0  0  0
 31 32  1  0  0  0
 36 37  1  0  0  0
 36 38  1  0  0  0
 36 39  1  0  0  0
 32 33  2  0  0  0
 33 34  1  0  0  0
 34 35  1  0  0  0
  5  6  1  0  0  0
 14 15  1  0  0  0
 15 16  1  0  0  0
 16 17  1  0  0  0
M  END
> <minimizedAffinity>
-9.93875

$$$$
