CHEMBL3972694


 34 37  0  0  0  0  0  0  0  0999 V2000
  -30.2090   -6.0365   -5.5752 N   0  0  0  0  0  0  0  0  0  0  0  0
  -27.5687   -1.9216   -9.1355 C   0  0  0  0  0  0  0  0  0  0  0  0
  -27.5899   -0.8797   -8.2089 C   0  0  0  0  0  0  0  0  0  0  0  0
  -28.1157   -1.0921   -6.9328 C   0  0  0  0  0  0  0  0  0  0  0  0
  -28.6226   -2.3288   -6.5582 C   0  0  0  0  0  0  0  0  0  0  0  0
  -29.1045   -2.5025   -5.3208 N   0  0  0  0  0  0  0  0  0  0  0  0
  -29.5856   -3.7403   -5.0399 C   0  0  0  0  0  0  0  0  0  0  0  0
  -29.6237   -4.8091   -5.9435 C   0  0  0  0  0  0  0  0  0  0  0  0
  -29.1099   -4.6109   -7.1771 N   0  0  0  0  0  0  0  0  0  0  0  0
  -28.6161   -3.3904   -7.4892 C   0  0  0  0  0  0  0  0  0  0  0  0
  -28.0859   -3.1685   -8.7540 C   0  0  0  0  0  0  0  0  0  0  0  0
  -24.3660   -1.1341  -12.8397 C   0  0  0  0  0  0  0  0  0  0  0  0
  -25.5694   -1.3814  -12.0841 N   0  0  0  0  0  0  0  0  0  0  0  0
  -25.6651   -1.5718  -10.7364 C   0  0  0  0  0  0  0  0  0  0  0  0
  -27.0092   -1.7166  -10.4592 C   0  0  0  0  0  0  0  0  0  0  0  0
  -27.6298   -1.6226  -11.7265 C   0  0  0  0  0  0  0  0  0  0  0  0
  -26.7556   -1.4168  -12.7161 N   0  0  0  0  0  0  0  0  0  0  0  0
  -30.4907   -7.1096   -6.4853 C   0  0  0  0  0  0  0  0  0  0  0  0
  -31.7826   -7.6325   -6.6442 C   0  0  0  0  0  0  0  0  0  0  0  0
  -32.0295   -8.6571   -7.5544 C   0  0  0  0  0  0  0  0  0  0  0  0
  -33.2762   -9.1315   -7.6836 F   0  0  0  0  0  0  0  0  0  0  0  0
  -31.0146   -9.1894   -8.3338 C   0  0  0  0  0  0  0  0  0  0  0  0
  -29.7174   -8.7133   -8.1831 C   0  0  0  0  0  0  0  0  0  0  0  0
  -29.4623   -7.6847   -7.2657 C   0  0  0  0  0  0  0  0  0  0  0  0
  -28.7903   -9.2891   -9.0095 O   0  0  0  0  0  0  0  0  0  0  0  0
  -29.1576  -10.5440   -9.5975 C   0  0  0  0  0  0  0  0  0  0  0  0
  -28.6736  -10.5465  -11.0456 C   0  0  0  0  0  0  0  0  0  0  0  0
  -29.4503   -9.6436  -11.8310 O   0  0  0  0  0  0  0  0  0  0  0  0
  -30.3808   -9.9130  -11.7151 H   0  0  0  0  0  0  0  0  0  0  0  0
  -30.4056   -6.4107   -4.1464 C   0  0  0  0  0  0  0  0  0  0  0  0
  -29.3379   -7.2025   -3.3673 C   0  0  0  0  0  0  0  0  0  0  0  0
  -29.4124   -8.6588   -3.5269 N   0  0  0  0  0  0  0  0  0  0  0  0
  -30.2467   -8.9692   -3.0210 H   0  0  0  0  0  0  0  0  0  0  0  0
  -28.6314   -9.0831   -3.0270 H   0  0  0  0  0  0  0  0  0  0  0  0
 12 13  1  0  0  0
 13 14  1  0  0  0
 13 17  1  0  0  0
 14 15  2  0  0  0
 15  2  1  0  0  0
 15 16  1  0  0  0
  2  3  1  0  0  0
  2 11  2  0  0  0
  3  4  2  0  0  0
  4  5  1  0  0  0
  5  6  1  0  0  0
  5 10  2  0  0  0
  6  7  2  0  0  0
  7  8  1  0  0  0
  8  1  1  0  0  0
  8  9  2  0  0  0
  1 30  1  0  0  0
  1 18  1  0  0  0
 30 31  1  0  0  0
 31 32  1  0  0  0
 32 33  1  0  0  0
 32 34  1  0  0  0
 18 19  1  0  0  0
 18 24  2  0  0  0
 19 20  2  0  0  0
 20 21  1  0  0  0
 20 22  1  0  0  0
 22 23  2  0  0  0
 23 25  1  0  0  0
 23 24  1  0  0  0
 25 26  1  0  0  0
 26 27  1  0  0  0
 27 28  1  0  0  0
 28 29  1  0  0  0
  9 10  1  0  0  0
 10 11  1  0  0  0
 16 17  2  0  0  0
M  END
> <minimizedAffinity>
-8.89467

$$$$
