CHEMBL4282338


 32 34  0  0  0  0  0  0  0  0999 V2000
  -28.5802   -3.5849   -5.7130 C   0  0  0  0  0  0  0  0  0  0  0  0
  -28.6915   -4.7903   -6.3225 N   0  0  0  0  0  0  0  0  0  0  0  0
  -28.3891   -4.8356   -7.6338 C   0  0  0  0  0  0  0  0  0  0  0  0
  -28.1112   -3.7389   -8.3546 N   0  0  0  0  0  0  0  0  0  0  0  0
  -28.0176   -2.5705   -7.7162 C   0  0  0  0  0  0  0  0  0  0  0  0
  -28.1919   -2.4361   -6.3641 C   0  0  0  0  0  0  0  0  0  0  0  0
  -27.9095   -1.1193   -5.7494 C   0  0  0  0  0  0  0  0  0  0  0  0
  -28.9219   -0.5615   -5.0371 F   0  0  0  0  0  0  0  0  0  0  0  0
  -26.8525   -1.1924   -4.8869 F   0  0  0  0  0  0  0  0  0  0  0  0
  -27.5460   -0.1872   -6.6762 F   0  0  0  0  0  0  0  0  0  0  0  0
  -28.3111   -6.0666   -8.2877 N   0  0  0  0  0  0  0  0  0  0  0  0
  -27.8794   -6.0185   -9.1963 H   0  0  0  0  0  0  0  0  0  0  0  0
  -29.0840   -7.2095   -7.9934 C   0  0  0  0  0  0  0  0  0  0  0  0
  -28.6783   -8.4955   -8.3953 C   0  0  0  0  0  0  0  0  0  0  0  0
  -29.5067   -9.6096   -8.2475 C   0  0  0  0  0  0  0  0  0  0  0  0
  -30.7726   -9.4476   -7.6936 C   0  0  0  0  0  0  0  0  0  0  0  0
  -31.1842   -8.1902   -7.2373 C   0  0  0  0  0  0  0  0  0  0  0  0
  -30.3364   -7.0794   -7.3813 C   0  0  0  0  0  0  0  0  0  0  0  0
  -31.8640  -10.8520   -7.5850 S   0  0  0  0  0  0  0  0  0  0  0  0
  -31.8912  -11.5040   -8.9769 N   0  0  0  0  0  0  0  0  0  0  0  0
  -33.0493  -10.4311   -6.8652 O   0  0  0  0  0  0  0  0  0  0  0  0
  -32.6226  -12.2152   -9.0100 H   0  0  0  0  0  0  0  0  0  0  0  0
  -30.9546  -12.0149   -6.5125 C   0  0  0  0  0  0  0  0  0  0  0  0
  -31.6190  -12.2480   -5.1778 C   0  0  0  0  0  0  0  0  0  0  0  0
  -30.3597  -11.4302   -5.2586 C   0  0  0  0  0  0  0  0  0  0  0  0
  -28.7607   -3.4963   -4.3460 O   0  0  0  0  0  0  0  0  0  0  0  0
  -30.1056   -3.5868   -3.8406 C   0  0  0  0  0  0  0  0  0  0  0  0
  -30.2664   -2.5724   -2.7050 C   0  0  0  0  0  0  0  0  0  0  0  0
  -31.3438   -5.8188   -4.0947 C   0  0  0  0  0  0  0  0  0  0  0  0
  -30.3285   -5.0193   -3.2895 C   0  0  0  0  0  0  0  0  0  0  0  0
  -29.1038   -5.7591   -3.2643 O   0  0  0  0  0  0  0  0  0  0  0  0
  -28.7411   -5.7396   -4.1706 H   0  0  0  0  0  0  0  0  0  0  0  0
 29 30  1  0  0  0
 30 31  1  0  0  0
 30 27  1  0  0  0
 31 32  1  0  0  0
 27 28  1  0  0  0
 27 26  1  0  0  0
 26  1  1  0  0  0
  1  2  1  0  0  0
  1  6  2  0  0  0
  2  3  2  0  0  0
  3 11  1  0  0  0
  3  4  1  0  0  0
 11 13  1  0  0  0
 11 12  1  0  0  0
 13 14  1  0  0  0
 13 18  2  0  0  0
 14 15  2  0  0  0
 15 16  1  0  0  0
 16 17  2  0  0  0
 19 21  2  0  0  0
 19 23  1  0  0  0
 19 20  2  0  0  0
 19 16  1  0  0  0
 20 22  1  0  0  0
 23 24  1  0  0  0
 23 25  1  0  0  0
 24 25  1  0  0  0
 17 18  1  0  0  0
  4  5  2  0  0  0
  5  6  1  0  0  0
  6  7  1  0  0  0
  7  8  1  0  0  0
  7  9  1  0  0  0
  7 10  1  0  0  0
M  END
> <minimizedAffinity>
-7.95983

$$$$
