CHEMBL360769


 28 30  0  0  0  0  0  0  0  0999 V2000
  -26.0110  -10.5085   -6.6213 C   0  0  0  0  0  0  0  0  0  0  0  0
  -26.4751  -10.4328   -7.9164 C   0  0  0  0  0  0  0  0  0  0  0  0
  -27.6796   -9.8130   -7.9193 N   0  0  0  0  0  0  0  0  0  0  0  0
  -28.3813   -9.5866   -9.0361 N   0  0  0  0  0  0  0  0  0  0  0  0
  -29.4804   -8.9436   -8.8383 C   0  0  0  0  0  0  0  0  0  0  0  0
  -29.9498   -8.4994   -7.6393 N   0  0  0  0  0  0  0  0  0  0  0  0
  -29.2779   -8.7134   -6.5418 C   0  0  0  0  0  0  0  0  0  0  0  0
  -28.0338   -9.4455   -6.6460 C   0  0  0  0  0  0  0  0  0  0  0  0
  -27.0094   -9.8607   -5.7764 C   0  0  0  0  0  0  0  0  0  0  0  0
  -26.7832   -9.6644   -4.2818 C   0  0  0  0  0  0  0  0  0  0  0  0
  -26.9609  -10.9750   -3.5087 C   0  0  0  0  0  0  0  0  0  0  0  0
  -25.5125   -8.9505   -3.8451 C   0  0  0  0  0  0  0  0  0  0  0  0
  -24.7015  -11.0676   -6.2685 C   0  0  0  0  0  0  0  0  0  0  0  0
  -24.5392  -12.1556   -5.7385 O   0  0  0  0  0  0  0  0  0  0  0  0
  -23.6938  -10.1741   -6.5008 O   0  0  0  0  0  0  0  0  0  0  0  0
  -21.5880  -10.9851   -7.2739 C   0  0  0  0  0  0  0  0  0  0  0  0
  -22.4009  -10.5844   -6.0533 C   0  0  0  0  0  0  0  0  0  0  0  0
  -29.8048   -8.2655   -5.3487 N   0  0  0  0  0  0  0  0  0  0  0  0
  -30.7368   -8.6316   -5.1934 H   0  0  0  0  0  0  0  0  0  0  0  0
  -29.6808   -6.9306   -4.8908 C   0  0  0  0  0  0  0  0  0  0  0  0
  -30.8243   -6.1588   -4.6536 C   0  0  0  0  0  0  0  0  0  0  0  0
  -30.7191   -4.8548   -4.1517 C   0  0  0  0  0  0  0  0  0  0  0  0
  -29.4687   -4.2963   -3.8510 C   0  0  0  0  0  0  0  0  0  0  0  0
  -29.3871   -2.8915   -3.3304 C   0  0  0  0  0  0  0  0  0  0  0  0
  -28.3329   -5.0840   -4.0545 C   0  0  0  0  0  0  0  0  0  0  0  0
  -27.0675   -4.6500   -3.7742 O   0  0  0  0  0  0  0  0  0  0  0  0
  -28.4364   -6.3814   -4.5572 C   0  0  0  0  0  0  0  0  0  0  0  0
  -27.1016   -3.7350   -3.4577 H   0  0  0  0  0  0  0  0  0  0  0  0
 16 17  1  0  0  0
 17 15  1  0  0  0
 15 13  1  0  0  0
 13 14  2  0  0  0
 13  1  1  0  0  0
  1  2  2  0  0  0
  1  9  1  0  0  0
  2  3  1  0  0  0
  3  4  1  0  0  0
  3  8  1  0  0  0
  4  5  2  0  0  0
  5  6  1  0  0  0
  6  7  2  0  0  0
  7 18  1  0  0  0
  7  8  1  0  0  0
 18 20  1  0  0  0
 18 19  1  0  0  0
 20 21  1  0  0  0
 20 27  2  0  0  0
 21 22  2  0  0  0
 22 23  1  0  0  0
 23 24  1  0  0  0
 23 25  2  0  0  0
 25 26  1  0  0  0
 25 27  1  0  0  0
 26 28  1  0  0  0
  8  9  2  0  0  0
  9 10  1  0  0  0
 10 11  1  0  0  0
 10 12  1  0  0  0
M  END
> <minimizedAffinity>
-7.15400

$$$$
