CHEMBL346631


 40 45  0  0  0  0  0  0  0  0999 V2000
  -19.1163    1.8968  -14.6939 C   0  0  0  0  0  0  0  0  0  0  0  0
  -18.8544    2.8155  -15.7117 C   0  0  0  0  0  0  0  0  0  0  0  0
  -17.5602    3.0629  -16.1485 C   0  0  0  0  0  0  0  0  0  0  0  0
  -16.4947    2.4001  -15.5301 C   0  0  0  0  0  0  0  0  0  0  0  0
  -16.7602    1.4035  -14.5702 C   0  0  0  0  0  0  0  0  0  0  0  0
  -18.0772    1.1273  -14.1697 C   0  0  0  0  0  0  0  0  0  0  0  0
  -15.5126    0.8876  -14.3390 C   0  0  0  0  0  0  0  0  0  0  0  0
  -15.2346   -0.4684  -14.0390 C   0  0  0  0  0  0  0  0  0  0  0  0
  -13.9459   -0.9566  -14.5302 C   0  0  0  0  0  0  0  0  0  0  0  0
  -13.0174   -0.0422  -15.0571 C   0  0  0  0  0  0  0  0  0  0  0  0
  -13.2128    1.2090  -14.4683 C   0  0  0  0  0  0  0  0  0  0  0  0
  -14.4753    1.7019  -14.6862 C   0  0  0  0  0  0  0  0  0  0  0  0
  -15.0956    2.4406  -15.7266 N   0  0  0  0  0  0  0  0  0  0  0  0
  -11.8906    1.8123  -14.2786 C   0  0  0  0  0  0  0  0  0  0  0  0
  -11.3844    1.5186  -15.6555 C   0  0  0  0  0  0  0  0  0  0  0  0
  -10.8494    2.5578  -16.4128 C   0  0  0  0  0  0  0  0  0  0  0  0
  -11.0374    2.4902  -17.7728 C   0  0  0  0  0  0  0  0  0  0  0  0
  -11.6555    1.3510  -18.3301 C   0  0  0  0  0  0  0  0  0  0  0  0
  -12.1513    0.2606  -17.5318 C   0  0  0  0  0  0  0  0  0  0  0  0
  -12.0609    0.3366  -16.1411 C   0  0  0  0  0  0  0  0  0  0  0  0
  -13.6066   -2.0257  -13.5920 C   0  0  0  0  0  0  0  0  0  0  0  0
  -12.5683   -2.6483  -13.3956 O   0  0  0  0  0  0  0  0  0  0  0  0
  -14.6968   -2.1324  -12.7083 N   0  0  0  0  0  0  0  0  0  0  0  0
  -15.7981   -1.2139  -12.9187 C   0  0  0  0  0  0  0  0  0  0  0  0
  -14.5191   -2.5266  -11.7944 H   0  0  0  0  0  0  0  0  0  0  0  0
  -20.4843    1.8287  -14.0976 C   0  0  0  0  0  0  0  0  0  0  0  0
  -21.0012    0.5442  -14.4314 O   0  0  0  0  0  0  0  0  0  0  0  0
  -22.6555   -0.7186  -13.3214 C   0  0  0  0  0  0  0  0  0  0  0  0
  -22.4073    0.4309  -14.2907 C   0  0  0  0  0  0  0  0  0  0  0  0
  -23.0059    1.7243  -13.7491 C   0  0  0  0  0  0  0  0  0  0  0  0
  -14.4611    2.7147  -17.0130 C   0  0  0  0  0  0  0  0  0  0  0  0
  -14.1894    4.1382  -17.5059 C   0  0  0  0  0  0  0  0  0  0  0  0
  -15.1967    4.5981  -18.5615 C   0  0  0  0  0  0  0  0  0  0  0  0
  -14.5160    5.2650  -19.6257 O   0  0  0  0  0  0  0  0  0  0  0  0
  -14.9846    6.5136  -19.8955 C   0  0  0  0  0  0  0  0  0  0  0  0
  -15.6922    6.7935  -20.8547 O   0  0  0  0  0  0  0  0  0  0  0  0
  -14.5344    7.5335  -18.8632 C   0  0  0  0  0  0  0  0  0  0  0  0
  -13.0663    7.7371  -18.8396 N   0  0  0  0  0  0  0  0  0  0  0  0
  -12.6879    9.0120  -19.4571 C   0  0  0  0  0  0  0  0  0  0  0  0
  -12.6028    7.7077  -17.4496 C   0  0  0  0  0  0  0  0  0  0  0  0
 28 29  1  0  0  0
 29 30  1  0  0  0
 29 27  1  0  0  0
 27 26  1  0  0  0
 26  1  1  0  0  0
  1  2  1  0  0  0
  1  6  2  0  0  0
  2  3  2  0  0  0
  3  4  1  0  0  0
  4  5  2  0  0  0
  4 13  1  0  0  0
  5  6  1  0  0  0
  5  7  1  0  0  0
  7  8  1  0  0  0
  7 12  2  0  0  0
  8  9  2  0  0  0
  8 24  1  0  0  0
  9 10  1  0  0  0
  9 21  1  0  0  0
 10 11  2  0  0  0
 10 20  1  0  0  0
 11 12  1  0  0  0
 11 14  1  0  0  0
 12 13  1  0  0  0
 13 31  1  0  0  0
 31 32  1  0  0  0
 32 33  1  0  0  0
 33 34  1  0  0  0
 34 35  1  0  0  0
 35 36  2  0  0  0
 35 37  1  0  0  0
 37 38  1  0  0  0
 38 39  1  0  0  0
 38 40  1  0  0  0
 14 15  1  0  0  0
 15 16  1  0  0  0
 15 20  2  0  0  0
 16 17  2  0  0  0
 17 18  1  0  0  0
 18 19  2  0  0  0
 19 20  1  0  0  0
 21 22  2  0  0  0
 21 23  1  0  0  0
 23 24  1  0  0  0
 23 25  1  0  0  0
M  END
> <minimizedAffinity>
-7.18204

$$$$
