CHEMBL3644034


 30 31  0  0  0  0  0  0  0  0999 V2000
  -29.5767   -4.4552   -5.2132 C   0  0  0  0  0  0  0  0  0  0  0  0
  -29.8858   -5.5301   -5.9785 N   0  0  0  0  0  0  0  0  0  0  0  0
  -30.7511   -6.4198   -5.4604 C   0  0  0  0  0  0  0  0  0  0  0  0
  -31.2855   -6.2829   -4.2373 N   0  0  0  0  0  0  0  0  0  0  0  0
  -31.0141   -5.1660   -3.5506 C   0  0  0  0  0  0  0  0  0  0  0  0
  -30.1804   -4.1799   -4.0103 C   0  0  0  0  0  0  0  0  0  0  0  0
  -30.0259   -2.9395   -3.2165 C   0  0  0  0  0  0  0  0  0  0  0  0
  -30.8679   -2.7980   -2.1582 F   0  0  0  0  0  0  0  0  0  0  0  0
  -28.7690   -2.8398   -2.6916 F   0  0  0  0  0  0  0  0  0  0  0  0
  -30.1863   -1.8172   -3.9730 F   0  0  0  0  0  0  0  0  0  0  0  0
  -31.1549   -7.5068   -6.2406 N   0  0  0  0  0  0  0  0  0  0  0  0
  -32.0916   -7.8094   -6.0283 H   0  0  0  0  0  0  0  0  0  0  0  0
  -30.3680   -8.2771   -7.1140 C   0  0  0  0  0  0  0  0  0  0  0  0
  -28.9701   -8.1542   -7.1338 C   0  0  0  0  0  0  0  0  0  0  0  0
  -28.1994   -8.8402   -8.0865 C   0  0  0  0  0  0  0  0  0  0  0  0
  -28.8277   -9.6695   -9.0235 C   0  0  0  0  0  0  0  0  0  0  0  0
  -30.2121   -9.8042   -9.0210 C   0  0  0  0  0  0  0  0  0  0  0  0
  -30.9671   -9.1066   -8.0759 C   0  0  0  0  0  0  0  0  0  0  0  0
  -27.8850  -10.4527  -10.3089 S   0  0  0  0  0  0  0  0  0  0  0  0
  -28.8921  -10.2857  -11.7550 C   0  0  0  0  0  0  0  0  0  0  0  0
  -26.6793   -9.6601  -10.5144 O   0  0  0  0  0  0  0  0  0  0  0  0
  -27.7922  -11.8625   -9.9859 O   0  0  0  0  0  0  0  0  0  0  0  0
  -28.5948   -3.5768   -5.6330 O   0  0  0  0  0  0  0  0  0  0  0  0
  -28.6134   -3.3037   -8.0697 C   0  0  0  0  0  0  0  0  0  0  0  0
  -28.9219   -2.6663   -6.7090 C   0  0  0  0  0  0  0  0  0  0  0  0
  -28.0926   -1.3554   -6.4755 C   0  0  0  0  0  0  0  0  0  0  0  0
  -28.9581   -0.0961   -6.3179 C   0  0  0  0  0  0  0  0  0  0  0  0
  -27.1498   -1.4710   -5.2728 C   0  0  0  0  0  0  0  0  0  0  0  0
  -27.2541   -1.1438   -7.6248 O   0  0  0  0  0  0  0  0  0  0  0  0
  -27.8488   -1.0929   -8.3963 H   0  0  0  0  0  0  0  0  0  0  0  0
 24 25  1  0  0  0
 25 23  1  0  0  0
 25 26  1  0  0  0
 23  1  1  0  0  0
  1  2  1  0  0  0
  1  6  2  0  0  0
  2  3  2  0  0  0
  3 11  1  0  0  0
  3  4  1  0  0  0
 11 13  1  0  0  0
 11 12  1  0  0  0
 13 14  1  0  0  0
 13 18  2  0  0  0
 14 15  2  0  0  0
 15 16  1  0  0  0
 16 19  1  0  0  0
 16 17  2  0  0  0
 19 20  1  0  0  0
 19 21  2  0  0  0
 19 22  2  0  0  0
 17 18  1  0  0  0
  4  5  2  0  0  0
  5  6  1  0  0  0
  6  7  1  0  0  0
  7  8  1  0  0  0
  7  9  1  0  0  0
  7 10  1  0  0  0
 26 27  1  0  0  0
 26 28  1  0  0  0
 26 29  1  0  0  0
 29 30  1  0  0  0
M  END
> <minimizedAffinity>
-8.27306

$$$$
