CHEMBL1980407


 37 41  0  0  0  0  0  0  0  0999 V2000
  -24.9642   -1.0747  -12.0915 C   0  0  0  0  0  0  0  0  0  0  0  0
  -25.4695   -1.7619  -13.1861 C   0  0  0  0  0  0  0  0  0  0  0  0
  -25.0523   -1.5836  -14.4579 N   0  0  0  0  0  0  0  0  0  0  0  0
  -24.0813   -0.6614  -14.6492 C   0  0  0  0  0  0  0  0  0  0  0  0
  -23.4998    0.1206  -13.6489 C   0  0  0  0  0  0  0  0  0  0  0  0
  -23.9710   -0.1182  -12.3400 C   0  0  0  0  0  0  0  0  0  0  0  0
  -22.4374    1.1084  -13.9659 C   0  0  0  0  0  0  0  0  0  0  0  0
  -22.7119    2.5005  -13.9276 C   0  0  0  0  0  0  0  0  0  0  0  0
  -21.7264    3.4601  -14.1785 C   0  0  0  0  0  0  0  0  0  0  0  0
  -20.4574    3.0078  -14.4608 C   0  0  0  0  0  0  0  0  0  0  0  0
  -20.1324    1.6517  -14.5170 C   0  0  0  0  0  0  0  0  0  0  0  0
  -21.1136    0.6975  -14.2765 C   0  0  0  0  0  0  0  0  0  0  0  0
  -18.6893    1.5958  -14.8146 C   0  0  0  0  0  0  0  0  0  0  0  0
  -17.9223    0.4968  -14.9055 C   0  0  0  0  0  0  0  0  0  0  0  0
  -18.2183    3.0288  -14.9523 C   0  0  0  0  0  0  0  0  0  0  0  0
  -17.1197    3.4597  -15.2404 O   0  0  0  0  0  0  0  0  0  0  0  0
  -19.3441    3.7954  -14.7126 N   0  0  0  0  0  0  0  0  0  0  0  0
  -19.3178    4.8036  -14.7303 H   0  0  0  0  0  0  0  0  0  0  0  0
  -16.5175    0.5749  -15.0577 C   0  0  0  0  0  0  0  0  0  0  0  0
  -15.4724    0.4925  -14.1599 C   0  0  0  0  0  0  0  0  0  0  0  0
  -14.2731    0.7480  -14.8698 C   0  0  0  0  0  0  0  0  0  0  0  0
  -14.6127    0.9368  -16.1900 C   0  0  0  0  0  0  0  0  0  0  0  0
  -15.9760    0.8159  -16.2986 N   0  0  0  0  0  0  0  0  0  0  0  0
  -16.5044    0.9539  -17.1506 H   0  0  0  0  0  0  0  0  0  0  0  0
  -25.3489   -1.2491  -10.7838 O   0  0  0  0  0  0  0  0  0  0  0  0
  -26.7486   -1.5194  -10.5940 C   0  0  0  0  0  0  0  0  0  0  0  0
  -27.2512   -3.4943   -9.1831 N   0  0  0  0  0  0  0  0  0  0  0  0
  -27.0397   -2.0341   -9.1674 C   0  0  0  0  0  0  0  0  0  0  0  0
  -26.4180   -3.9324   -9.5786 H   0  0  0  0  0  0  0  0  0  0  0  0
  -28.0147   -3.7303   -9.8142 H   0  0  0  0  0  0  0  0  0  0  0  0
  -28.2694   -1.2738   -8.6123 C   0  0  0  0  0  0  0  0  0  0  0  0
  -28.1227   -0.7931   -7.1888 C   0  0  0  0  0  0  0  0  0  0  0  0
  -27.6271   -1.6460   -6.1937 C   0  0  0  0  0  0  0  0  0  0  0  0
  -27.5165   -1.2029   -4.8744 C   0  0  0  0  0  0  0  0  0  0  0  0
  -27.9008    0.0939   -4.5376 C   0  0  0  0  0  0  0  0  0  0  0  0
  -28.3885    0.9520   -5.5205 C   0  0  0  0  0  0  0  0  0  0  0  0
  -28.4966    0.5117   -6.8401 C   0  0  0  0  0  0  0  0  0  0  0  0
 27 28  1  0  0  0
 27 29  1  0  0  0
 27 30  1  0  0  0
 28 26  1  0  0  0
 28 31  1  0  0  0
 26 25  1  0  0  0
 25  1  1  0  0  0
  1  2  1  0  0  0
  1  6  2  0  0  0
  2  3  2  0  0  0
  3  4  1  0  0  0
  4  5  2  0  0  0
  5  7  1  0  0  0
  5  6  1  0  0  0
  7  8  1  0  0  0
  7 12  2  0  0  0
  8  9  2  0  0  0
  9 10  1  0  0  0
 10 11  2  0  0  0
 10 17  1  0  0  0
 11 12  1  0  0  0
 11 13  1  0  0  0
 13 14  2  0  0  0
 13 15  1  0  0  0
 14 19  1  0  0  0
 19 20  2  0  0  0
 19 23  1  0  0  0
 20 21  1  0  0  0
 21 22  2  0  0  0
 22 23  1  0  0  0
 23 24  1  0  0  0
 15 16  2  0  0  0
 15 17  1  0  0  0
 17 18  1  0  0  0
 31 32  1  0  0  0
 32 33  1  0  0  0
 32 37  2  0  0  0
 33 34  2  0  0  0
 34 35  1  0  0  0
 35 36  2  0  0  0
 36 37  1  0  0  0
M  END
> <minimizedAffinity>
-11.44167

$$$$
