CHEMBL2011297


 29 32  0  0  0  0  0  0  0  0999 V2000
  -29.1100   -5.0083   -5.6705 N   0  0  0  0  0  0  0  0  0  0  0  0
  -30.1112   -5.6759   -6.2956 N   0  0  0  0  0  0  0  0  0  0  0  0
  -29.8274   -6.9753   -6.1391 C   0  0  0  0  0  0  0  0  0  0  0  0
  -28.7614   -7.1643   -5.1865 C   0  0  0  0  0  0  0  0  0  0  0  0
  -28.2947   -5.8778   -4.9275 C   0  0  0  0  0  0  0  0  0  0  0  0
  -27.3145   -5.4477   -4.0785 N   0  0  0  0  0  0  0  0  0  0  0  0
  -26.9965   -6.0785   -3.3452 H   0  0  0  0  0  0  0  0  0  0  0  0
  -27.3179   -4.4855   -3.7443 H   0  0  0  0  0  0  0  0  0  0  0  0
  -28.2468   -8.4182   -4.6022 C   0  0  0  0  0  0  0  0  0  0  0  0
  -26.9174   -8.8300   -4.7752 C   0  0  0  0  0  0  0  0  0  0  0  0
  -26.4956  -10.0977   -4.3517 C   0  0  0  0  0  0  0  0  0  0  0  0
  -27.4115  -10.9844   -3.8019 C   0  0  0  0  0  0  0  0  0  0  0  0
  -27.0267  -12.2272   -3.4852 F   0  0  0  0  0  0  0  0  0  0  0  0
  -28.7238  -10.5987   -3.5900 C   0  0  0  0  0  0  0  0  0  0  0  0
  -29.1193   -9.3017   -3.9328 C   0  0  0  0  0  0  0  0  0  0  0  0
  -28.8102   -0.7897   -6.1502 C   0  0  0  0  0  0  0  0  0  0  0  0
  -28.2135   -1.6603   -7.0672 C   0  0  0  0  0  0  0  0  0  0  0  0
  -28.3054   -3.0466   -6.8921 C   0  0  0  0  0  0  0  0  0  0  0  0
  -29.0331   -3.5879   -5.8131 C   0  0  0  0  0  0  0  0  0  0  0  0
  -29.6248   -2.7121   -4.8932 C   0  0  0  0  0  0  0  0  0  0  0  0
  -29.5064   -1.3230   -5.0586 C   0  0  0  0  0  0  0  0  0  0  0  0
  -28.5952    1.7870   -6.4514 N   0  0  0  0  0  0  0  0  0  0  0  0
  -28.6913    0.6332   -6.3145 C   0  0  0  0  0  0  0  0  0  0  0  0
  -30.6164   -7.9931   -6.8508 C   0  0  0  0  0  0  0  0  0  0  0  0
  -31.9961   -8.1071   -6.6481 C   0  0  0  0  0  0  0  0  0  0  0  0
  -32.7280   -8.9279   -7.4878 C   0  0  0  0  0  0  0  0  0  0  0  0
  -32.1742   -9.7009   -8.4416 N   0  0  0  0  0  0  0  0  0  0  0  0
  -30.8287   -9.6573   -8.5515 C   0  0  0  0  0  0  0  0  0  0  0  0
  -30.0168   -8.8268   -7.7955 C   0  0  0  0  0  0  0  0  0  0  0  0
 22 23  3  0  0  0
 23 16  1  0  0  0
 16 17  1  0  0  0
 16 21  2  0  0  0
 17 18  2  0  0  0
 18 19  1  0  0  0
 19  1  1  0  0  0
 19 20  2  0  0  0
  1  2  1  0  0  0
  1  5  1  0  0  0
  2  3  2  0  0  0
  3 24  1  0  0  0
  3  4  1  0  0  0
 24 25  1  0  0  0
 24 29  2  0  0  0
 25 26  2  0  0  0
 26 27  1  0  0  0
 27 28  2  0  0  0
 28 29  1  0  0  0
  4  9  1  0  0  0
  4  5  2  0  0  0
  9 10  1  0  0  0
  9 15  2  0  0  0
 10 11  2  0  0  0
 11 12  1  0  0  0
 12 13  1  0  0  0
 12 14  2  0  0  0
 14 15  1  0  0  0
  5  6  1  0  0  0
  6  7  1  0  0  0
  6  8  1  0  0  0
 20 21  1  0  0  0
M  END
> <minimizedAffinity>
-8.58273

$$$$
