CHEMBL3109404


 29 31  0  0  0  0  0  0  0  0999 V2000
  -29.0362   -6.0582   -7.3675 C   0  0  0  0  0  0  0  0  0  0  0  0
  -29.0701   -5.6901   -5.7908 C   0  0  0  0  0  0  0  0  0  0  0  0
  -28.2971   -6.8298   -5.0548 C   0  0  0  0  0  0  0  0  0  0  0  0
  -30.5653   -5.5566   -5.2889 C   0  0  0  0  0  0  0  0  0  0  0  0
  -30.9508   -6.3530   -4.0451 C   0  0  0  0  0  0  0  0  0  0  0  0
  -31.0615   -4.1116   -5.1602 C   0  0  0  0  0  0  0  0  0  0  0  0
  -30.5137   -3.2366   -6.2786 C   0  0  0  0  0  0  0  0  0  0  0  0
  -28.9820   -3.0161   -6.1528 C   0  0  0  0  0  0  0  0  0  0  0  0
  -28.3734   -2.7419   -7.5597 C   0  0  0  0  0  0  0  0  0  0  0  0
  -28.7933   -1.7318   -5.3211 C   0  0  0  0  0  0  0  0  0  0  0  0
  -29.1202   -0.3930   -5.9429 C   0  0  0  0  0  0  0  0  0  0  0  0
  -28.4467   -1.7431   -4.0258 C   0  0  0  0  0  0  0  0  0  0  0  0
  -28.2073   -2.9808   -3.2531 C   0  0  0  0  0  0  0  0  0  0  0  0
  -27.7252   -4.1416   -4.0991 C   0  0  0  0  0  0  0  0  0  0  0  0
  -28.2782   -4.3087   -5.5491 C   0  0  0  0  0  0  0  0  0  0  0  0
  -30.8943   -9.2637   -8.0512 C   0  0  0  0  0  0  0  0  0  0  0  0
  -30.1796   -9.7169   -9.1644 C   0  0  0  0  0  0  0  0  0  0  0  0
  -28.9287   -9.1879   -9.4289 C   0  0  0  0  0  0  0  0  0  0  0  0
  -28.2736   -9.5094  -10.5745 O   0  0  0  0  0  0  0  0  0  0  0  0
  -28.4105   -8.1607   -8.6383 C   0  0  0  0  0  0  0  0  0  0  0  0
  -27.1713   -7.6648   -8.9185 O   0  0  0  0  0  0  0  0  0  0  0  0
  -29.2255   -7.5441   -7.6844 C   0  0  0  0  0  0  0  0  0  0  0  0
  -30.3897   -8.2049   -7.2775 C   0  0  0  0  0  0  0  0  0  0  0  0
  -28.7861   -9.0724  -11.2855 H   0  0  0  0  0  0  0  0  0  0  0  0
  -26.7230   -8.3718   -9.4223 H   0  0  0  0  0  0  0  0  0  0  0  0
  -32.2824   -9.7456   -7.8746 C   0  0  0  0  0  0  0  0  0  0  0  0
  -33.2249   -8.9871   -7.7159 O   0  0  0  0  0  0  0  0  0  0  0  0
  -32.3407  -11.7009   -6.6227 C   0  0  0  0  0  0  0  0  0  0  0  0
  -32.3319  -11.0989   -7.9124 O   0  0  0  0  0  0  0  0  0  0  0  0
 28 29  1  0  0  0
 29 26  1  0  0  0
 26 27  2  0  0  0
 26 16  1  0  0  0
 16 17  1  0  0  0
 16 23  2  0  0  0
 17 18  2  0  0  0
 18 19  1  0  0  0
 18 20  1  0  0  0
 19 24  1  0  0  0
 20 21  1  0  0  0
 20 22  2  0  0  0
 21 25  1  0  0  0
 22  1  1  0  0  0
 22 23  1  0  0  0
  2  1  1  0  0  0
  2  3  1  0  0  0
  2  4  1  0  0  0
  2 15  1  0  0  0
  4  5  1  0  0  0
  4  6  1  0  0  0
  6  7  1  0  0  0
  7  8  1  0  0  0
  8  9  1  0  0  0
  8 10  1  0  0  0
  8 15  1  0  0  0
 10 11  1  0  0  0
 10 12  2  0  0  0
 12 13  1  0  0  0
 13 14  1  0  0  0
 14 15  1  0  0  0
M  END
> <minimizedAffinity>
-9.43630

$$$$
