CHEMBL2113062


 34 41  0  0  0  0  0  0  0  0999 V2000
  -14.9210   -3.1991   -9.4535 C   0  0  0  0  0  0  0  0  0  0  0  0
  -14.0673   -3.9651  -10.4692 C   0  0  0  0  0  0  0  0  0  0  0  0
  -14.0991   -5.3486  -10.0352 O   0  0  0  0  0  0  0  0  0  0  0  0
  -12.9748   -5.9997  -10.6400 C   0  0  0  0  0  0  0  0  0  0  0  0
  -11.8853   -4.9264  -10.8906 C   0  0  0  0  0  0  0  0  0  0  0  0
  -12.5303   -3.6165  -10.4294 C   0  0  0  0  0  0  0  0  0  0  0  0
  -11.9778   -3.2572   -9.0440 C   0  0  0  0  0  0  0  0  0  0  0  0
  -12.1154   -2.5093  -11.2313 O   0  0  0  0  0  0  0  0  0  0  0  0
  -13.4756   -6.5936  -11.8666 N   0  0  0  0  0  0  0  0  0  0  0  0
  -13.1567   -7.8286  -12.4579 C   0  0  0  0  0  0  0  0  0  0  0  0
  -12.9291   -9.0700  -11.8367 C   0  0  0  0  0  0  0  0  0  0  0  0
  -12.6321  -10.1714  -12.6367 C   0  0  0  0  0  0  0  0  0  0  0  0
  -12.5161  -10.0585  -14.0248 C   0  0  0  0  0  0  0  0  0  0  0  0
  -12.7189   -8.8203  -14.6621 C   0  0  0  0  0  0  0  0  0  0  0  0
  -13.0689   -7.6898  -13.9017 C   0  0  0  0  0  0  0  0  0  0  0  0
  -13.3758   -6.3503  -14.2271 C   0  0  0  0  0  0  0  0  0  0  0  0
  -13.2398   -5.6774  -15.4588 C   0  0  0  0  0  0  0  0  0  0  0  0
  -13.4741   -4.2863  -15.3620 C   0  0  0  0  0  0  0  0  0  0  0  0
  -13.9273   -3.8576  -14.1124 C   0  0  0  0  0  0  0  0  0  0  0  0
  -14.1490   -2.5479  -13.6661 C   0  0  0  0  0  0  0  0  0  0  0  0
  -13.7258   -1.2459  -13.9788 C   0  0  0  0  0  0  0  0  0  0  0  0
  -14.3651   -0.1758  -13.3486 C   0  0  0  0  0  0  0  0  0  0  0  0
  -15.5327   -0.3934  -12.6190 C   0  0  0  0  0  0  0  0  0  0  0  0
  -15.8941   -1.6768  -12.2048 C   0  0  0  0  0  0  0  0  0  0  0  0
  -14.9868   -2.6936  -12.5057 C   0  0  0  0  0  0  0  0  0  0  0  0
  -14.6479   -3.9018  -11.8363 N   0  0  0  0  0  0  0  0  0  0  0  0
  -14.1590   -4.5573  -12.9311 C   0  0  0  0  0  0  0  0  0  0  0  0
  -13.7289   -5.8636  -12.9723 C   0  0  0  0  0  0  0  0  0  0  0  0
  -13.3255   -3.6089  -16.6414 C   0  0  0  0  0  0  0  0  0  0  0  0
  -12.9203   -4.7505  -17.4445 N   0  0  0  0  0  0  0  0  0  0  0  0
  -12.8714   -5.9870  -16.7952 C   0  0  0  0  0  0  0  0  0  0  0  0
  -12.5644   -7.0070  -17.3993 O   0  0  0  0  0  0  0  0  0  0  0  0
  -12.2176   -2.7344  -12.1711 H   0  0  0  0  0  0  0  0  0  0  0  0
  -12.7235   -4.7115  -18.4320 H   0  0  0  0  0  0  0  0  0  0  0  0
  2  1  1  0  0  0
  2  3  1  0  0  0
  2  6  1  0  0  0
  2 26  1  0  0  0
  3  4  1  0  0  0
  4  5  1  0  0  0
  4  9  1  0  0  0
  5  6  1  0  0  0
  6  8  1  0  0  0
  6  7  1  0  0  0
  8 33  1  0  0  0
  9 10  1  0  0  0
  9 28  1  0  0  0
 10 11  1  0  0  0
 10 15  2  0  0  0
 11 12  2  0  0  0
 12 13  1  0  0  0
 13 14  2  0  0  0
 14 15  1  0  0  0
 15 16  1  0  0  0
 16 17  1  0  0  0
 16 28  2  0  0  0
 17 18  2  0  0  0
 17 31  1  0  0  0
 18 19  1  0  0  0
 18 29  1  0  0  0
 19 20  1  0  0  0
 19 27  2  0  0  0
 20 21  1  0  0  0
 20 25  2  0  0  0
 21 22  2  0  0  0
 22 23  1  0  0  0
 23 24  2  0  0  0
 24 25  1  0  0  0
 25 26  1  0  0  0
 26 27  1  0  0  0
 27 28  1  0  0  0
 29 30  1  0  0  0
 30 31  1  0  0  0
 30 34  1  0  0  0
 31 32  2  0  0  0
M  END
> <minimizedAffinity>
-8.29776

$$$$
