CHEMBL3759155


 39 43  0  0  0  0  0  0  0  0999 V2000
  -23.3141   -1.7612  -12.5803 C   0  0  0  0  0  0  0  0  0  0  0  0
  -22.3194   -0.9804  -13.1801 C   0  0  0  0  0  0  0  0  0  0  0  0
  -22.5164    0.3965  -13.4252 C   0  0  0  0  0  0  0  0  0  0  0  0
  -21.6591    1.2010  -14.1931 C   0  0  0  0  0  0  0  0  0  0  0  0
  -21.9115    2.5100  -14.3755 N   0  0  0  0  0  0  0  0  0  0  0  0
  -22.9931    3.0181  -13.7834 C   0  0  0  0  0  0  0  0  0  0  0  0
  -23.8770    2.3349  -13.0506 N   0  0  0  0  0  0  0  0  0  0  0  0
  -23.6386    1.0332  -12.8970 C   0  0  0  0  0  0  0  0  0  0  0  0
  -24.5591    0.2751  -12.1987 C   0  0  0  0  0  0  0  0  0  0  0  0
  -24.4681   -1.1253  -12.0879 C   0  0  0  0  0  0  0  0  0  0  0  0
  -23.3574   -3.8614  -13.7066 C   0  0  0  0  0  0  0  0  0  0  0  0
  -23.2207   -3.1265  -12.4867 O   0  0  0  0  0  0  0  0  0  0  0  0
  -20.5165    0.6071  -14.8109 N   0  0  0  0  0  0  0  0  0  0  0  0
  -20.8141    0.0620  -15.6129 H   0  0  0  0  0  0  0  0  0  0  0  0
  -19.2667    1.2241  -15.0378 C   0  0  0  0  0  0  0  0  0  0  0  0
  -18.0936    0.4789  -15.1303 C   0  0  0  0  0  0  0  0  0  0  0  0
  -16.8569    1.0881  -15.3180 C   0  0  0  0  0  0  0  0  0  0  0  0
  -16.7524    2.4649  -15.4769 C   0  0  0  0  0  0  0  0  0  0  0  0
  -17.9320    3.2171  -15.5069 C   0  0  0  0  0  0  0  0  0  0  0  0
  -19.1792    2.5993  -15.2954 C   0  0  0  0  0  0  0  0  0  0  0  0
  -15.5072    3.1314  -15.5891 N   0  0  0  0  0  0  0  0  0  0  0  0
  -15.0749    3.8425  -16.7010 C   0  0  0  0  0  0  0  0  0  0  0  0
  -15.7351    4.0795  -17.7085 O   0  0  0  0  0  0  0  0  0  0  0  0
  -14.8894    3.0584  -14.7938 H   0  0  0  0  0  0  0  0  0  0  0  0
  -13.6854    4.3746  -16.6857 C   0  0  0  0  0  0  0  0  0  0  0  0
  -12.9124    4.5568  -17.8431 C   0  0  0  0  0  0  0  0  0  0  0  0
  -11.6484    5.1395  -17.7440 C   0  0  0  0  0  0  0  0  0  0  0  0
  -11.1512    5.5546  -16.5046 C   0  0  0  0  0  0  0  0  0  0  0  0
  -11.9156    5.3838  -15.3556 C   0  0  0  0  0  0  0  0  0  0  0  0
  -13.1746    4.7938  -15.4510 C   0  0  0  0  0  0  0  0  0  0  0  0
  -25.4865   -1.8912  -11.5378 O   0  0  0  0  0  0  0  0  0  0  0  0
  -26.0480   -1.3143  -10.3403 C   0  0  0  0  0  0  0  0  0  0  0  0
  -27.4273   -1.8754   -9.9404 C   0  0  0  0  0  0  0  0  0  0  0  0
  -27.5097   -2.2461   -8.4947 N   0  0  0  0  0  0  0  0  0  0  0  0
  -27.7321   -1.0657   -7.6369 C   0  0  0  0  0  0  0  0  0  0  0  0
  -27.8867   -1.4063   -6.1532 C   0  0  0  0  0  0  0  0  0  0  0  0
  -28.9708   -2.4455   -5.9296 C   0  0  0  0  0  0  0  0  0  0  0  0
  -28.7043   -3.6571   -6.8115 C   0  0  0  0  0  0  0  0  0  0  0  0
  -28.5669   -3.2523   -8.2851 C   0  0  0  0  0  0  0  0  0  0  0  0
 11 12  1  0  0  0
 12  1  1  0  0  0
  1  2  1  0  0  0
  1 10  2  0  0  0
  2  3  2  0  0  0
  3  4  1  0  0  0
  3  8  1  0  0  0
  4 13  1  0  0  0
  4  5  2  0  0  0
 13 15  1  0  0  0
 13 14  1  0  0  0
 15 16  1  0  0  0
 15 20  2  0  0  0
 16 17  2  0  0  0
 17 18  1  0  0  0
 18 21  1  0  0  0
 18 19  2  0  0  0
 21 22  1  0  0  0
 21 24  1  0  0  0
 22 23  2  0  0  0
 22 25  1  0  0  0
 25 26  1  0  0  0
 25 30  2  0  0  0
 26 27  2  0  0  0
 27 28  1  0  0  0
 28 29  2  0  0  0
 29 30  1  0  0  0
 19 20  1  0  0  0
  5  6  1  0  0  0
  6  7  2  0  0  0
  7  8  1  0  0  0
  8  9  2  0  0  0
  9 10  1  0  0  0
 10 31  1  0  0  0
 31 32  1  0  0  0
 32 33  1  0  0  0
 33 34  1  0  0  0
 34 35  1  0  0  0
 34 39  1  0  0  0
 35 36  1  0  0  0
 36 37  1  0  0  0
 37 38  1  0  0  0
 38 39  1  0  0  0
M  END
> <minimizedAffinity>
-7.03020

$$$$
