CHEMBL1277072


 37 41  0  0  0  0  0  0  0  0999 V2000
  -27.5117   -4.2518   -8.6454 C   0  0  0  0  0  0  0  0  0  0  0  0
  -27.8019   -2.9131   -8.0639 C   0  0  0  0  0  0  0  0  0  0  0  0
  -27.2810   -1.6715   -8.3976 C   0  0  0  0  0  0  0  0  0  0  0  0
  -27.7464   -0.7644   -7.4612 N   0  0  0  0  0  0  0  0  0  0  0  0
  -28.6320   -1.4013   -6.6067 C   0  0  0  0  0  0  0  0  0  0  0  0
  -28.7947   -2.6797   -7.0895 C   0  0  0  0  0  0  0  0  0  0  0  0
  -29.7999   -3.6200   -6.6635 C   0  0  0  0  0  0  0  0  0  0  0  0
  -30.6305   -4.0435   -7.4677 O   0  0  0  0  0  0  0  0  0  0  0  0
  -29.7463   -4.0311   -5.3416 N   0  0  0  0  0  0  0  0  0  0  0  0
  -29.0463   -3.1903   -4.3552 C   0  0  0  0  0  0  0  0  0  0  0  0
  -29.5936   -1.7469   -4.2663 C   0  0  0  0  0  0  0  0  0  0  0  0
  -29.3352   -0.7763   -5.4537 C   0  0  0  0  0  0  0  0  0  0  0  0
  -27.5107    0.2259   -7.4419 H   0  0  0  0  0  0  0  0  0  0  0  0
  -26.4814   -1.3450   -9.5212 C   0  0  0  0  0  0  0  0  0  0  0  0
  -26.7127   -1.4733  -10.8318 C   0  0  0  0  0  0  0  0  0  0  0  0
  -27.9241   -1.9196  -11.5996 C   0  0  0  0  0  0  0  0  0  0  0  0
  -29.0422   -2.1349  -11.1666 O   0  0  0  0  0  0  0  0  0  0  0  0
  -27.5008   -2.0078  -12.9210 N   0  0  0  0  0  0  0  0  0  0  0  0
  -26.1676   -1.6256  -13.0584 C   0  0  0  0  0  0  0  0  0  0  0  0
  -25.4183   -1.5793  -14.2191 C   0  0  0  0  0  0  0  0  0  0  0  0
  -24.0971   -1.1300  -14.1155 C   0  0  0  0  0  0  0  0  0  0  0  0
  -23.5715   -0.7547  -12.8715 C   0  0  0  0  0  0  0  0  0  0  0  0
  -22.3078   -0.3168  -12.7999 F   0  0  0  0  0  0  0  0  0  0  0  0
  -24.3299   -0.8217  -11.7081 C   0  0  0  0  0  0  0  0  0  0  0  0
  -25.6395   -1.2613  -11.8175 C   0  0  0  0  0  0  0  0  0  0  0  0
  -28.1114   -2.2873  -13.6737 H   0  0  0  0  0  0  0  0  0  0  0  0
  -30.7066   -5.0609   -4.9032 C   0  0  0  0  0  0  0  0  0  0  0  0
  -30.0955   -6.3774   -4.2931 C   0  0  0  0  0  0  0  0  0  0  0  0
  -29.2214   -6.1901   -3.1789 O   0  0  0  0  0  0  0  0  0  0  0  0
  -29.3018   -5.2727   -2.8495 H   0  0  0  0  0  0  0  0  0  0  0  0
  -29.2600   -7.0977   -5.3916 C   0  0  0  0  0  0  0  0  0  0  0  0
  -29.9782   -8.0623   -6.2600 N   0  0  0  0  0  0  0  0  0  0  0  0
  -29.3896   -9.4162   -6.1654 C   0  0  0  0  0  0  0  0  0  0  0  0
  -28.0192   -9.5337   -6.8575 C   0  0  0  0  0  0  0  0  0  0  0  0
  -28.0621   -9.0927   -8.2223 O   0  0  0  0  0  0  0  0  0  0  0  0
  -28.6071   -7.7700   -8.3325 C   0  0  0  0  0  0  0  0  0  0  0  0
  -29.9972   -7.6857   -7.6857 C   0  0  0  0  0  0  0  0  0  0  0  0
  1  2  1  0  0  0
  2  3  2  0  0  0
  2  6  1  0  0  0
  3 14  1  0  0  0
  3  4  1  0  0  0
 14 15  2  0  0  0
 15 16  1  0  0  0
 15 25  1  0  0  0
 16 17  2  0  0  0
 16 18  1  0  0  0
 18 19  1  0  0  0
 18 26  1  0  0  0
 19 20  1  0  0  0
 19 25  2  0  0  0
 20 21  2  0  0  0
 21 22  1  0  0  0
 22 23  1  0  0  0
 22 24  2  0  0  0
 24 25  1  0  0  0
  4  5  1  0  0  0
  4 13  1  0  0  0
  5  6  2  0  0  0
  5 12  1  0  0  0
  6  7  1  0  0  0
  7  8  2  0  0  0
  7  9  1  0  0  0
  9 27  1  0  0  0
  9 10  1  0  0  0
 28 31  1  0  0  0
 28 29  1  0  0  0
 28 27  1  0  0  0
 29 30  1  0  0  0
 31 32  1  0  0  0
 32 33  1  0  0  0
 32 37  1  0  0  0
 33 34  1  0  0  0
 34 35  1  0  0  0
 35 36  1  0  0  0
 36 37  1  0  0  0
 10 11  1  0  0  0
 11 12  1  0  0  0
M  END
> <minimizedAffinity>
-8.65141

$$$$
