CHEMBL4079338


 30 33  0  0  0  0  0  0  0  0999 V2000
  -28.7490   -4.5695   -6.1323 C   0  0  0  0  0  0  0  0  0  0  0  0
  -28.1498   -3.3566   -5.7853 C   0  0  0  0  0  0  0  0  0  0  0  0
  -27.7824   -2.4169   -6.7473 C   0  0  0  0  0  0  0  0  0  0  0  0
  -28.0889   -2.6072   -8.0942 C   0  0  0  0  0  0  0  0  0  0  0  0
  -28.7904   -3.7594   -8.4514 C   0  0  0  0  0  0  0  0  0  0  0  0
  -29.0998   -4.7346   -7.4851 C   0  0  0  0  0  0  0  0  0  0  0  0
  -31.6161   -3.2996   -4.4002 C   0  0  0  0  0  0  0  0  0  0  0  0
  -31.2088   -4.6184   -3.8503 C   0  0  0  0  0  0  0  0  0  0  0  0
  -31.9608   -5.1176   -2.8504 N   0  0  0  0  0  0  0  0  0  0  0  0
  -31.3622   -6.2775   -2.5477 N   0  0  0  0  0  0  0  0  0  0  0  0
  -30.2691   -6.5551   -3.2997 C   0  0  0  0  0  0  0  0  0  0  0  0
  -29.5140   -7.6581   -3.1677 N   0  0  0  0  0  0  0  0  0  0  0  0
  -28.4930   -7.7053   -4.0368 C   0  0  0  0  0  0  0  0  0  0  0  0
  -28.2110   -6.7350   -4.9915 C   0  0  0  0  0  0  0  0  0  0  0  0
  -29.0238   -5.5868   -5.1065 C   0  0  0  0  0  0  0  0  0  0  0  0
  -30.1178   -5.4988   -4.1954 C   0  0  0  0  0  0  0  0  0  0  0  0
  -31.7468   -6.8496   -1.8054 H   0  0  0  0  0  0  0  0  0  0  0  0
  -27.7595   -1.6572   -9.0933 N   0  0  0  0  0  0  0  0  0  0  0  0
  -27.0116   -1.9309  -10.2256 C   0  0  0  0  0  0  0  0  0  0  0  0
  -26.6773   -3.0495  -10.5995 O   0  0  0  0  0  0  0  0  0  0  0  0
  -26.6254   -0.7673  -10.8792 N   0  0  0  0  0  0  0  0  0  0  0  0
  -28.2490   -0.7783   -9.0764 H   0  0  0  0  0  0  0  0  0  0  0  0
  -26.4572    0.0137  -10.2615 H   0  0  0  0  0  0  0  0  0  0  0  0
  -25.8257   -0.8321  -12.0454 C   0  0  0  0  0  0  0  0  0  0  0  0
  -26.3273   -1.4943  -13.1684 C   0  0  0  0  0  0  0  0  0  0  0  0
  -25.6013   -1.4918  -14.3629 C   0  0  0  0  0  0  0  0  0  0  0  0
  -24.3529   -0.8710  -14.4249 C   0  0  0  0  0  0  0  0  0  0  0  0
  -23.8357   -0.2499  -13.2909 C   0  0  0  0  0  0  0  0  0  0  0  0
  -22.1337    0.5714  -13.3649 Br  0  0  0  0  0  0  0  0  0  0  0  0
  -24.5671   -0.2221  -12.1050 C   0  0  0  0  0  0  0  0  0  0  0  0
  7  8  1  0  0  0
  8  9  2  0  0  0
  8 16  1  0  0  0
  9 10  1  0  0  0
 10 11  1  0  0  0
 10 17  1  0  0  0
 11 12  1  0  0  0
 11 16  2  0  0  0
 12 13  2  0  0  0
 13 14  1  0  0  0
 14 15  2  0  0  0
 15  1  1  0  0  0
 15 16  1  0  0  0
  1  2  1  0  0  0
  1  6  2  0  0  0
  2  3  2  0  0  0
  3  4  1  0  0  0
  4 18  1  0  0  0
  4  5  2  0  0  0
 18 19  1  0  0  0
 18 22  1  0  0  0
 19 20  2  0  0  0
 19 21  1  0  0  0
 21 24  1  0  0  0
 21 23  1  0  0  0
 24 25  1  0  0  0
 24 30  2  0  0  0
 25 26  2  0  0  0
 26 27  1  0  0  0
 27 28  2  0  0  0
 28 29  1  0  0  0
 28 30  1  0  0  0
  5  6  1  0  0  0
M  END
> <minimizedAffinity>
-9.01230

$$$$
