CHEMBL198297


 36 39  0  0  0  0  0  0  0  0999 V2000
  -18.2876    2.4447  -15.1776 C   0  0  0  0  0  0  0  0  0  0  0  0
  -17.6229    1.2583  -15.4860 C   0  0  0  0  0  0  0  0  0  0  0  0
  -16.3067    1.2767  -15.9461 C   0  0  0  0  0  0  0  0  0  0  0  0
  -15.6541    2.4797  -16.2328 C   0  0  0  0  0  0  0  0  0  0  0  0
  -16.3858    3.6655  -16.0572 C   0  0  0  0  0  0  0  0  0  0  0  0
  -17.6831    3.6551  -15.5085 C   0  0  0  0  0  0  0  0  0  0  0  0
  -14.2429    2.4904  -16.6763 C   0  0  0  0  0  0  0  0  0  0  0  0
  -13.2413    1.8048  -15.9744 C   0  0  0  0  0  0  0  0  0  0  0  0
  -11.6979    2.0184  -16.6953 S   0  0  0  0  0  0  0  0  0  0  0  0
  -12.3184    2.9749  -17.9396 C   0  0  0  0  0  0  0  0  0  0  0  0
  -11.4760    3.4413  -18.8761 N   0  0  0  0  0  0  0  0  0  0  0  0
  -12.0912    4.1787  -19.7934 C   0  0  0  0  0  0  0  0  0  0  0  0
  -13.3919    4.4912  -19.8397 N   0  0  0  0  0  0  0  0  0  0  0  0
  -14.2022    4.0163  -18.8773 C   0  0  0  0  0  0  0  0  0  0  0  0
  -15.5253    4.4311  -18.9945 N   0  0  0  0  0  0  0  0  0  0  0  0
  -13.6861    3.1889  -17.8497 C   0  0  0  0  0  0  0  0  0  0  0  0
  -15.5816    5.1681  -19.6921 H   0  0  0  0  0  0  0  0  0  0  0  0
  -15.9678    4.6443  -18.1100 H   0  0  0  0  0  0  0  0  0  0  0  0
  -13.2636    0.9428  -14.7296 C   0  0  0  0  0  0  0  0  0  0  0  0
  -13.5400    1.7068  -13.4388 C   0  0  0  0  0  0  0  0  0  0  0  0
  -12.2678    2.1742  -12.7462 C   0  0  0  0  0  0  0  0  0  0  0  0
  -12.5994    2.7972  -11.5114 O   0  0  0  0  0  0  0  0  0  0  0  0
  -13.2353    3.5078  -11.6997 H   0  0  0  0  0  0  0  0  0  0  0  0
  -21.4749    1.4154  -13.7617 N   0  0  0  0  0  0  0  0  0  0  0  0
  -20.3183    1.2878  -14.5071 C   0  0  0  0  0  0  0  0  0  0  0  0
  -20.0032    0.2762  -15.1285 O   0  0  0  0  0  0  0  0  0  0  0  0
  -19.5140    2.4243  -14.4621 N   0  0  0  0  0  0  0  0  0  0  0  0
  -21.7474    2.3500  -13.4984 H   0  0  0  0  0  0  0  0  0  0  0  0
  -19.5430    2.9392  -13.5940 H   0  0  0  0  0  0  0  0  0  0  0  0
  -25.3706   -1.2120  -15.3356 C   0  0  0  0  0  0  0  0  0  0  0  0
  -24.3366   -0.9226  -14.2926 C   0  0  0  0  0  0  0  0  0  0  0  0
  -24.3135   -1.6652  -13.1106 C   0  0  0  0  0  0  0  0  0  0  0  0
  -23.3573   -1.4003  -12.1376 C   0  0  0  0  0  0  0  0  0  0  0  0
  -22.4228   -0.3837  -12.3363 C   0  0  0  0  0  0  0  0  0  0  0  0
  -22.4088    0.3724  -13.5151 C   0  0  0  0  0  0  0  0  0  0  0  0
  -23.3799    0.0961  -14.4889 C   0  0  0  0  0  0  0  0  0  0  0  0
 30 31  1  0  0  0
 31 32  1  0  0  0
 31 36  2  0  0  0
 32 33  2  0  0  0
 33 34  1  0  0  0
 34 35  2  0  0  0
 35 24  1  0  0  0
 35 36  1  0  0  0
 24 25  1  0  0  0
 24 28  1  0  0  0
 25 26  2  0  0  0
 25 27  1  0  0  0
 27  1  1  0  0  0
 27 29  1  0  0  0
  1  2  1  0  0  0
  1  6  2  0  0  0
  2  3  2  0  0  0
  3  4  1  0  0  0
  4  7  1  0  0  0
  4  5  2  0  0  0
  7  8  2  0  0  0
  7 16  1  0  0  0
  8 19  1  0  0  0
  8  9  1  0  0  0
 19 20  1  0  0  0
 20 21  1  0  0  0
 21 22  1  0  0  0
 22 23  1  0  0  0
  9 10  1  0  0  0
 10 11  1  0  0  0
 10 16  2  0  0  0
 11 12  2  0  0  0
 12 13  1  0  0  0
 13 14  2  0  0  0
 14 15  1  0  0  0
 14 16  1  0  0  0
 15 17  1  0  0  0
 15 18  1  0  0  0
  5  6  1  0  0  0
M  END
> <minimizedAffinity>
-9.45377

$$$$
