CHEMBL4585345


 38 42  0  0  0  0  0  0  0  0999 V2000
  -29.4679   -6.3671   -6.4539 C   0  0  0  0  0  0  0  0  0  0  0  0
  -28.1717   -6.7662   -6.1917 C   0  0  0  0  0  0  0  0  0  0  0  0
  -27.9974   -7.2299   -4.8924 C   0  0  0  0  0  0  0  0  0  0  0  0
  -27.0559   -8.2153   -4.6485 C   0  0  0  0  0  0  0  0  0  0  0  0
  -27.5133   -9.3350   -3.9746 C   0  0  0  0  0  0  0  0  0  0  0  0
  -28.7293   -9.2673   -3.2929 C   0  0  0  0  0  0  0  0  0  0  0  0
  -29.4126   -8.0377   -3.1958 C   0  0  0  0  0  0  0  0  0  0  0  0
  -29.0625   -6.9782   -4.0176 C   0  0  0  0  0  0  0  0  0  0  0  0
  -29.8307   -5.8812   -4.2149 N   0  0  0  0  0  0  0  0  0  0  0  0
  -29.8332   -5.4480   -5.4856 C   0  0  0  0  0  0  0  0  0  0  0  0
  -32.3774   -9.5238   -7.3403 C   0  0  0  0  0  0  0  0  0  0  0  0
  -31.0367   -9.6550   -7.6713 C   0  0  0  0  0  0  0  0  0  0  0  0
  -30.1507   -8.5918   -7.4741 C   0  0  0  0  0  0  0  0  0  0  0  0
  -30.5388   -7.3968   -6.8343 C   0  0  0  0  0  0  0  0  0  0  0  0
  -31.9310   -7.2302   -6.6603 C   0  0  0  0  0  0  0  0  0  0  0  0
  -32.8432   -8.2750   -6.9401 C   0  0  0  0  0  0  0  0  0  0  0  0
  -33.1559  -11.5627   -6.3986 C   0  0  0  0  0  0  0  0  0  0  0  0
  -33.1316  -10.6508   -7.4938 O   0  0  0  0  0  0  0  0  0  0  0  0
  -26.7357  -10.4343   -4.1811 O   0  0  0  0  0  0  0  0  0  0  0  0
  -25.9609  -10.4855   -5.3653 C   0  0  0  0  0  0  0  0  0  0  0  0
  -29.9818   -4.1009   -5.9146 N   0  0  0  0  0  0  0  0  0  0  0  0
  -30.9675   -3.9759   -6.1275 H   0  0  0  0  0  0  0  0  0  0  0  0
  -29.2002   -3.3916   -6.8454 C   0  0  0  0  0  0  0  0  0  0  0  0
  -29.1461   -3.8162   -8.1816 C   0  0  0  0  0  0  0  0  0  0  0  0
  -28.3690   -3.1508   -9.1199 C   0  0  0  0  0  0  0  0  0  0  0  0
  -27.6413   -2.0219   -8.7838 C   0  0  0  0  0  0  0  0  0  0  0  0
  -27.7674   -1.5263   -7.4812 C   0  0  0  0  0  0  0  0  0  0  0  0
  -28.5385   -2.2077   -6.5214 C   0  0  0  0  0  0  0  0  0  0  0  0
  -26.7595   -1.3522   -9.6866 N   0  0  0  0  0  0  0  0  0  0  0  0
  -26.9532   -1.2032  -11.0603 C   0  0  0  0  0  0  0  0  0  0  0  0
  -27.9236   -1.5739  -11.6883 O   0  0  0  0  0  0  0  0  0  0  0  0
  -25.8742   -1.0519   -9.2940 H   0  0  0  0  0  0  0  0  0  0  0  0
  -25.7552   -0.5301  -11.7763 C   0  0  0  0  0  0  0  0  0  0  0  0
  -24.8451   -1.5276  -12.3616 N   0  0  0  0  0  0  0  0  0  0  0  0
  -23.6015   -1.6580  -11.5925 C   0  0  0  0  0  0  0  0  0  0  0  0
  -22.6694   -0.6257  -12.1950 C   0  0  0  0  0  0  0  0  0  0  0  0
  -22.9951   -0.7034  -13.6738 C   0  0  0  0  0  0  0  0  0  0  0  0
  -24.4399   -1.1898  -13.7348 C   0  0  0  0  0  0  0  0  0  0  0  0
 17 18  1  0  0  0
 18 11  1  0  0  0
 11 12  1  0  0  0
 11 16  2  0  0  0
 12 13  2  0  0  0
 13 14  1  0  0  0
 14  1  1  0  0  0
 14 15  2  0  0  0
  1  2  1  0  0  0
  1 10  2  0  0  0
  2  3  2  0  0  0
  3  4  1  0  0  0
  3  8  1  0  0  0
  4  5  2  0  0  0
  5 19  1  0  0  0
  5  6  1  0  0  0
 19 20  1  0  0  0
  6  7  2  0  0  0
  7  8  1  0  0  0
  8  9  2  0  0  0
  9 10  1  0  0  0
 10 21  1  0  0  0
 21 23  1  0  0  0
 21 22  1  0  0  0
 23 24  1  0  0  0
 23 28  2  0  0  0
 24 25  2  0  0  0
 25 26  1  0  0  0
 26 29  1  0  0  0
 26 27  2  0  0  0
 29 30  1  0  0  0
 29 32  1  0  0  0
 30 31  2  0  0  0
 30 33  1  0  0  0
 33 34  1  0  0  0
 34 35  1  0  0  0
 34 38  1  0  0  0
 35 36  1  0  0  0
 36 37  1  0  0  0
 37 38  1  0  0  0
 27 28  1  0  0  0
 15 16  1  0  0  0
M  END
> <minimizedAffinity>
-8.81356

$$$$
