CHEMBL3918306


 40 44  0  0  0  0  0  0  0  0999 V2000
  -30.6408   -7.2725   -5.8033 C   0  0  0  0  0  0  0  0  0  0  0  0
  -29.8682   -8.4161   -6.0810 C   0  0  0  0  0  0  0  0  0  0  0  0
  -28.5743   -8.5961   -5.5224 C   0  0  0  0  0  0  0  0  0  0  0  0
  -27.6940   -9.6657   -5.7490 C   0  0  0  0  0  0  0  0  0  0  0  0
  -26.4768   -9.7327   -5.1658 N   0  0  0  0  0  0  0  0  0  0  0  0
  -26.1357   -8.7422   -4.3463 C   0  0  0  0  0  0  0  0  0  0  0  0
  -26.9005   -7.7000   -4.0401 N   0  0  0  0  0  0  0  0  0  0  0  0
  -28.0936   -7.6466   -4.6309 C   0  0  0  0  0  0  0  0  0  0  0  0
  -28.8907   -6.5709   -4.3157 C   0  0  0  0  0  0  0  0  0  0  0  0
  -30.1433   -6.3195   -4.9056 C   0  0  0  0  0  0  0  0  0  0  0  0
  -32.1810   -8.4215   -7.2203 C   0  0  0  0  0  0  0  0  0  0  0  0
  -31.8582   -7.2920   -6.4205 O   0  0  0  0  0  0  0  0  0  0  0  0
  -28.0768  -10.7248   -6.6111 N   0  0  0  0  0  0  0  0  0  0  0  0
  -28.7666  -11.3071   -6.1494 H   0  0  0  0  0  0  0  0  0  0  0  0
  -28.3137  -10.5535   -7.9918 C   0  0  0  0  0  0  0  0  0  0  0  0
  -29.4471  -11.1252   -8.5940 C   0  0  0  0  0  0  0  0  0  0  0  0
  -29.6629  -11.0121   -9.9664 C   0  0  0  0  0  0  0  0  0  0  0  0
  -28.7445  -10.3246  -10.7606 C   0  0  0  0  0  0  0  0  0  0  0  0
  -29.0496  -10.2504  -12.4587 Cl  0  0  0  0  0  0  0  0  0  0  0  0
  -27.6209   -9.7348  -10.1698 C   0  0  0  0  0  0  0  0  0  0  0  0
  -26.4391   -8.8716  -11.0908 Cl  0  0  0  0  0  0  0  0  0  0  0  0
  -27.4122   -9.8432   -8.7894 C   0  0  0  0  0  0  0  0  0  0  0  0
  -30.8701   -5.1801   -4.6202 O   0  0  0  0  0  0  0  0  0  0  0  0
  -30.0693   -4.0267   -4.3378 C   0  0  0  0  0  0  0  0  0  0  0  0
  -29.7679   -3.1088   -5.5153 C   0  0  0  0  0  0  0  0  0  0  0  0
  -28.3713   -3.4228   -6.0804 C   0  0  0  0  0  0  0  0  0  0  0  0
  -27.9272   -2.3496   -6.9656 N   0  0  0  0  0  0  0  0  0  0  0  0
  -27.7932   -2.5918   -8.3222 C   0  0  0  0  0  0  0  0  0  0  0  0
  -27.9812   -3.7028   -8.8181 O   0  0  0  0  0  0  0  0  0  0  0  0
  -27.9621   -1.0281   -6.3327 C   0  0  0  0  0  0  0  0  0  0  0  0
  -29.3749   -0.7490   -5.8181 C   0  0  0  0  0  0  0  0  0  0  0  0
  -29.8137   -1.7777   -4.9302 O   0  0  0  0  0  0  0  0  0  0  0  0
  -27.3819   -1.3995   -9.1643 C   0  0  0  0  0  0  0  0  0  0  0  0
  -27.7780   -1.5588  -10.6254 C   0  0  0  0  0  0  0  0  0  0  0  0
  -26.5548   -1.5680  -11.5078 C   0  0  0  0  0  0  0  0  0  0  0  0
  -26.6886   -1.6217  -12.9013 C   0  0  0  0  0  0  0  0  0  0  0  0
  -25.5582   -1.6265  -13.7188 C   0  0  0  0  0  0  0  0  0  0  0  0
  -24.2861   -1.5880  -13.1508 C   0  0  0  0  0  0  0  0  0  0  0  0
  -24.1424   -1.5614  -11.7647 C   0  0  0  0  0  0  0  0  0  0  0  0
  -25.2717   -1.5568  -10.9451 C   0  0  0  0  0  0  0  0  0  0  0  0
 11 12  1  0  0  0
 12  1  1  0  0  0
  1  2  1  0  0  0
  1 10  2  0  0  0
  2  3  2  0  0  0
  3  4  1  0  0  0
  3  8  1  0  0  0
  4 13  1  0  0  0
  4  5  2  0  0  0
 13 15  1  0  0  0
 13 14  1  0  0  0
 15 16  1  0  0  0
 15 22  2  0  0  0
 16 17  2  0  0  0
 17 18  1  0  0  0
 18 19  1  0  0  0
 18 20  2  0  0  0
 20 21  1  0  0  0
 20 22  1  0  0  0
  5  6  1  0  0  0
  6  7  2  0  0  0
  7  8  1  0  0  0
  8  9  2  0  0  0
  9 10  1  0  0  0
 10 23  1  0  0  0
 23 24  1  0  0  0
 24 25  1  0  0  0
 25 26  1  0  0  0
 25 32  1  0  0  0
 26 27  1  0  0  0
 27 28  1  0  0  0
 27 30  1  0  0  0
 28 29  2  0  0  0
 28 33  1  0  0  0
 33 34  1  0  0  0
 34 35  1  0  0  0
 35 36  1  0  0  0
 35 40  2  0  0  0
 36 37  2  0  0  0
 37 38  1  0  0  0
 38 39  2  0  0  0
 39 40  1  0  0  0
 30 31  1  0  0  0
 31 32  1  0  0  0
M  END
> <minimizedAffinity>
-9.26842

$$$$
