CHEMBL367442


 27 30  0  0  0  0  0  0  0  0999 V2000
  -12.8156    1.8726  -15.3174 N   0  0  0  0  0  0  0  0  0  0  0  0
  -14.0836    1.5672  -14.8414 C   0  0  0  0  0  0  0  0  0  0  0  0
  -14.1089    0.7031  -13.8093 N   0  0  0  0  0  0  0  0  0  0  0  0
  -15.2964    0.3768  -13.2786 C   0  0  0  0  0  0  0  0  0  0  0  0
  -16.4994    0.8264  -13.6372 N   0  0  0  0  0  0  0  0  0  0  0  0
  -16.4520    1.6865  -14.6774 C   0  0  0  0  0  0  0  0  0  0  0  0
  -15.2934    2.0878  -15.3467 C   0  0  0  0  0  0  0  0  0  0  0  0
  -15.7071    2.9545  -16.4157 C   0  0  0  0  0  0  0  0  0  0  0  0
  -17.0888    3.0103  -16.3621 C   0  0  0  0  0  0  0  0  0  0  0  0
  -17.5520    2.2589  -15.3001 N   0  0  0  0  0  0  0  0  0  0  0  0
  -12.1160    1.5407  -14.6640 H   0  0  0  0  0  0  0  0  0  0  0  0
  -12.7145    2.8380  -15.6090 H   0  0  0  0  0  0  0  0  0  0  0  0
  -14.9513    3.6676  -17.4476 C   0  0  0  0  0  0  0  0  0  0  0  0
  -14.1456    2.9764  -18.3604 C   0  0  0  0  0  0  0  0  0  0  0  0
  -13.3876    3.6593  -19.3150 C   0  0  0  0  0  0  0  0  0  0  0  0
  -13.4704    5.0449  -19.4127 C   0  0  0  0  0  0  0  0  0  0  0  0
  -14.3037    5.7473  -18.5476 C   0  0  0  0  0  0  0  0  0  0  0  0
  -15.0279    5.0667  -17.5640 C   0  0  0  0  0  0  0  0  0  0  0  0
  -18.9303    2.0982  -14.9472 C   0  0  0  0  0  0  0  0  0  0  0  0
  -19.5534    0.8516  -15.1046 C   0  0  0  0  0  0  0  0  0  0  0  0
  -20.8921    0.6791  -14.7295 C   0  0  0  0  0  0  0  0  0  0  0  0
  -21.6335    1.7493  -14.2165 C   0  0  0  0  0  0  0  0  0  0  0  0
  -21.0130    2.9963  -14.0839 C   0  0  0  0  0  0  0  0  0  0  0  0
  -19.6700    3.1684  -14.4362 C   0  0  0  0  0  0  0  0  0  0  0  0
  -23.0807    1.5772  -13.8348 C   0  0  0  0  0  0  0  0  0  0  0  0
  -23.4733    0.2164  -13.9472 O   0  0  0  0  0  0  0  0  0  0  0  0
  -23.0830   -0.1244  -14.7707 H   0  0  0  0  0  0  0  0  0  0  0  0
  1  2  1  0  0  0
  1 11  1  0  0  0
  1 12  1  0  0  0
  2  3  1  0  0  0
  2  7  2  0  0  0
  3  4  2  0  0  0
  4  5  1  0  0  0
  5  6  2  0  0  0
  6  7  1  0  0  0
  6 10  1  0  0  0
  7  8  1  0  0  0
  8 13  1  0  0  0
  8  9  2  0  0  0
 13 14  1  0  0  0
 13 18  2  0  0  0
 14 15  2  0  0  0
 15 16  1  0  0  0
 16 17  2  0  0  0
 17 18  1  0  0  0
  9 10  1  0  0  0
 10 19  1  0  0  0
 19 20  1  0  0  0
 19 24  2  0  0  0
 20 21  2  0  0  0
 21 22  1  0  0  0
 22 25  1  0  0  0
 22 23  2  0  0  0
 25 26  1  0  0  0
 26 27  1  0  0  0
 23 24  1  0  0  0
M  END
> <minimizedAffinity>
-7.99520

$$$$
