CHEMBL254674


 42 48  0  0  0  0  0  0  0  0999 V2000
  -28.8886   -3.4339   -8.3500 C   0  0  0  0  0  0  0  0  0  0  0  0
  -29.6500   -3.1811   -7.2723 N   0  0  0  0  0  0  0  0  0  0  0  0
  -29.7582   -4.1436   -6.3611 C   0  0  0  0  0  0  0  0  0  0  0  0
  -29.1463   -5.3554   -6.5203 C   0  0  0  0  0  0  0  0  0  0  0  0
  -29.5194   -6.4127   -5.5850 C   0  0  0  0  0  0  0  0  0  0  0  0
  -29.5017   -6.1643   -4.3830 O   0  0  0  0  0  0  0  0  0  0  0  0
  -29.8873   -7.5999   -6.1652 N   0  0  0  0  0  0  0  0  0  0  0  0
  -29.7691   -7.6479   -7.5673 C   0  0  0  0  0  0  0  0  0  0  0  0
  -30.1535   -8.5722   -8.3996 N   0  0  0  0  0  0  0  0  0  0  0  0
  -28.9505   -9.0904   -8.7380 C   0  0  0  0  0  0  0  0  0  0  0  0
  -28.7468  -10.4604   -8.9387 C   0  0  0  0  0  0  0  0  0  0  0  0
  -27.5307  -10.9764   -8.5209 C   0  0  0  0  0  0  0  0  0  0  0  0
  -26.4943  -10.1116   -8.1481 C   0  0  0  0  0  0  0  0  0  0  0  0
  -26.6166   -8.6896   -8.1932 C   0  0  0  0  0  0  0  0  0  0  0  0
  -27.9217   -8.1769   -8.4385 C   0  0  0  0  0  0  0  0  0  0  0  0
  -28.6562   -7.0055   -8.1276 N   0  0  0  0  0  0  0  0  0  0  0  0
  -28.4633   -5.6335   -7.7072 C   0  0  0  0  0  0  0  0  0  0  0  0
  -28.2941   -4.6387   -8.6226 N   0  0  0  0  0  0  0  0  0  0  0  0
  -29.5259   -8.8315   -5.5236 C   0  0  0  0  0  0  0  0  0  0  0  0
  -28.3472   -8.8856   -4.7659 C   0  0  0  0  0  0  0  0  0  0  0  0
  -27.1955   -7.5948   -4.7786 Cl  0  0  0  0  0  0  0  0  0  0  0  0
  -28.0389  -10.0133   -4.0007 C   0  0  0  0  0  0  0  0  0  0  0  0
  -28.9097  -11.0975   -3.9700 C   0  0  0  0  0  0  0  0  0  0  0  0
  -28.5380  -12.4653   -2.9962 Cl  0  0  0  0  0  0  0  0  0  0  0  0
  -30.0740  -11.0877   -4.7231 C   0  0  0  0  0  0  0  0  0  0  0  0
  -30.3759   -9.9751   -5.5159 C   0  0  0  0  0  0  0  0  0  0  0  0
  -31.8805  -10.0907   -6.3780 Cl  0  0  0  0  0  0  0  0  0  0  0  0
  -28.8994   -2.3432   -9.2300 N   0  0  0  0  0  0  0  0  0  0  0  0
  -28.9830   -1.5719   -8.5582 H   0  0  0  0  0  0  0  0  0  0  0  0
  -25.5767   -1.4010  -11.7303 C   0  0  0  0  0  0  0  0  0  0  0  0
  -25.5065   -1.3497  -10.3329 C   0  0  0  0  0  0  0  0  0  0  0  0
  -26.6137   -1.6421   -9.5295 C   0  0  0  0  0  0  0  0  0  0  0  0
  -27.8518   -1.9586  -10.0977 C   0  0  0  0  0  0  0  0  0  0  0  0
  -27.9361   -2.0370  -11.4845 C   0  0  0  0  0  0  0  0  0  0  0  0
  -26.8187   -1.7493  -12.2815 C   0  0  0  0  0  0  0  0  0  0  0  0
  -21.3836    0.9101  -14.5453 C   0  0  0  0  0  0  0  0  0  0  0  0
  -22.1954   -0.1909  -14.0336 N   0  0  0  0  0  0  0  0  0  0  0  0
  -22.2161   -0.1737  -12.5531 C   0  0  0  0  0  0  0  0  0  0  0  0
  -23.0961   -1.2943  -11.9504 C   0  0  0  0  0  0  0  0  0  0  0  0
  -24.4533   -1.2006  -12.5039 N   0  0  0  0  0  0  0  0  0  0  0  0
  -24.4997   -1.2134  -13.9760 C   0  0  0  0  0  0  0  0  0  0  0  0
  -23.5862   -0.0972  -14.5384 C   0  0  0  0  0  0  0  0  0  0  0  0
 36 37  1  0  0  0
 37 38  1  0  0  0
 37 42  1  0  0  0
 38 39  1  0  0  0
 39 40  1  0  0  0
 40 30  1  0  0  0
 40 41  1  0  0  0
 30 31  1  0  0  0
 30 35  2  0  0  0
 31 32  2  0  0  0
 32 33  1  0  0  0
 33 28  1  0  0  0
 33 34  2  0  0  0
 28  1  1  0  0  0
 28 29  1  0  0  0
  1  2  1  0  0  0
  1 18  2  0  0  0
  2  3  2  0  0  0
  3  4  1  0  0  0
  4  5  1  0  0  0
  4 17  2  0  0  0
  5  6  2  0  0  0
  5  7  1  0  0  0
  7 19  1  0  0  0
  7  8  1  0  0  0
 19 20  1  0  0  0
 19 26  2  0  0  0
 20 21  1  0  0  0
 20 22  2  0  0  0
 22 23  1  0  0  0
 23 24  1  0  0  0
 23 25  2  0  0  0
 25 26  1  0  0  0
 26 27  1  0  0  0
  8  9  2  0  0  0
  8 16  1  0  0  0
  9 10  1  0  0  0
 10 11  1  0  0  0
 10 15  2  0  0  0
 11 12  2  0  0  0
 12 13  1  0  0  0
 13 14  2  0  0  0
 14 15  1  0  0  0
 15 16  1  0  0  0
 16 17  1  0  0  0
 17 18  1  0  0  0
 34 35  1  0  0  0
 41 42  1  0  0  0
M  END
> <minimizedAffinity>
-7.06419

$$$$
