CHEMBL4174261


 32 35  0  0  0  0  0  0  0  0999 V2000
  -25.6033   -1.7190  -12.2573 C   0  0  0  0  0  0  0  0  0  0  0  0
  -26.4187   -1.9683  -13.3586 C   0  0  0  0  0  0  0  0  0  0  0  0
  -26.0671   -1.4980  -14.6237 C   0  0  0  0  0  0  0  0  0  0  0  0
  -24.9034   -0.7506  -14.8038 C   0  0  0  0  0  0  0  0  0  0  0  0
  -24.0799   -0.4273  -13.7165 C   0  0  0  0  0  0  0  0  0  0  0  0
  -24.4588   -0.9331  -12.4478 C   0  0  0  0  0  0  0  0  0  0  0  0
  -22.8999    0.4646  -13.8546 C   0  0  0  0  0  0  0  0  0  0  0  0
  -22.9399    1.7823  -13.3471 C   0  0  0  0  0  0  0  0  0  0  0  0
  -21.9864    2.7273  -13.7052 C   0  0  0  0  0  0  0  0  0  0  0  0
  -20.9068    2.3018  -14.4568 C   0  0  0  0  0  0  0  0  0  0  0  0
  -19.8543    3.2056  -14.8925 C   0  0  0  0  0  0  0  0  0  0  0  0
  -20.1112    4.2201  -15.5247 O   0  0  0  0  0  0  0  0  0  0  0  0
  -18.6030    2.6998  -14.6836 N   0  0  0  0  0  0  0  0  0  0  0  0
  -18.4301    1.3628  -14.9365 C   0  0  0  0  0  0  0  0  0  0  0  0
  -19.3912    0.5123  -15.1032 N   0  0  0  0  0  0  0  0  0  0  0  0
  -20.6834    0.9629  -14.7546 C   0  0  0  0  0  0  0  0  0  0  0  0
  -21.7227    0.0626  -14.5270 C   0  0  0  0  0  0  0  0  0  0  0  0
  -18.2554    2.9451  -13.7645 H   0  0  0  0  0  0  0  0  0  0  0  0
  -27.9828   -1.3569  -10.6081 O   0  0  0  0  0  0  0  0  0  0  0  0
  -27.0207   -2.0044  -10.2161 C   0  0  0  0  0  0  0  0  0  0  0  0
  -25.8595   -2.2087  -10.9535 N   0  0  0  0  0  0  0  0  0  0  0  0
  -26.9614   -2.6469   -8.9862 N   0  0  0  0  0  0  0  0  0  0  0  0
  -25.1962   -2.8738  -10.5883 H   0  0  0  0  0  0  0  0  0  0  0  0
  -26.0678   -3.0286   -8.7139 H   0  0  0  0  0  0  0  0  0  0  0  0
  -28.0089   -2.7537   -8.0319 C   0  0  0  0  0  0  0  0  0  0  0  0
  -29.0021   -3.7477   -8.0866 C   0  0  0  0  0  0  0  0  0  0  0  0
  -30.0006   -3.8095   -7.1077 C   0  0  0  0  0  0  0  0  0  0  0  0
  -30.0142   -2.8875   -6.0781 C   0  0  0  0  0  0  0  0  0  0  0  0
  -30.9708   -2.9496   -5.1410 F   0  0  0  0  0  0  0  0  0  0  0  0
  -29.0359   -1.8950   -6.0169 C   0  0  0  0  0  0  0  0  0  0  0  0
  -29.0515   -0.9806   -5.0478 F   0  0  0  0  0  0  0  0  0  0  0  0
  -28.0457   -1.8221   -6.9928 C   0  0  0  0  0  0  0  0  0  0  0  0
 19 20  2  0  0  0
 20 21  1  0  0  0
 20 22  1  0  0  0
 21  1  1  0  0  0
 21 23  1  0  0  0
  1  2  1  0  0  0
  1  6  2  0  0  0
  2  3  2  0  0  0
  3  4  1  0  0  0
  4  5  2  0  0  0
  5  7  1  0  0  0
  5  6  1  0  0  0
  7  8  1  0  0  0
  7 17  2  0  0  0
  8  9  2  0  0  0
  9 10  1  0  0  0
 10 11  1  0  0  0
 10 16  2  0  0  0
 11 12  2  0  0  0
 11 13  1  0  0  0
 13 14  1  0  0  0
 13 18  1  0  0  0
 14 15  2  0  0  0
 15 16  1  0  0  0
 16 17  1  0  0  0
 22 25  1  0  0  0
 22 24  1  0  0  0
 25 26  1  0  0  0
 25 32  2  0  0  0
 26 27  2  0  0  0
 27 28  1  0  0  0
 28 29  1  0  0  0
 28 30  2  0  0  0
 30 31  1  0  0  0
 30 32  1  0  0  0
M  END
> <minimizedAffinity>
-11.73342

$$$$
