CHEMBL389102


 30 33  0  0  0  0  0  0  0  0999 V2000
  -14.2440    0.5756  -14.1829 C   0  0  0  0  0  0  0  0  0  0  0  0
  -14.2004    1.7571  -14.8854 C   0  0  0  0  0  0  0  0  0  0  0  0
  -15.2807    2.3472  -15.4146 N   0  0  0  0  0  0  0  0  0  0  0  0
  -16.4651    1.7505  -15.2326 C   0  0  0  0  0  0  0  0  0  0  0  0
  -16.6170    0.6150  -14.5496 N   0  0  0  0  0  0  0  0  0  0  0  0
  -15.5008    0.0052  -14.0487 C   0  0  0  0  0  0  0  0  0  0  0  0
  -15.7736   -1.2397  -13.2927 C   0  0  0  0  0  0  0  0  0  0  0  0
  -15.7682   -1.2037  -11.8849 C   0  0  0  0  0  0  0  0  0  0  0  0
  -15.8346   -2.3593  -11.1030 C   0  0  0  0  0  0  0  0  0  0  0  0
  -16.0220   -3.5614  -11.7809 C   0  0  0  0  0  0  0  0  0  0  0  0
  -15.9970   -4.8633  -11.3405 N   0  0  0  0  0  0  0  0  0  0  0  0
  -16.7053   -5.6377  -12.2168 C   0  0  0  0  0  0  0  0  0  0  0  0
  -16.6987   -4.9580  -13.4184 C   0  0  0  0  0  0  0  0  0  0  0  0
  -16.2428   -3.6352  -13.1506 C   0  0  0  0  0  0  0  0  0  0  0  0
  -16.0517   -2.4726  -13.9263 C   0  0  0  0  0  0  0  0  0  0  0  0
  -15.5298   -5.1875  -10.5048 H   0  0  0  0  0  0  0  0  0  0  0  0
  -12.0741   -0.3334  -13.1249 N   0  0  0  0  0  0  0  0  0  0  0  0
  -13.0478    0.0639  -13.6229 C   0  0  0  0  0  0  0  0  0  0  0  0
  -17.6259    2.3722  -15.7059 N   0  0  0  0  0  0  0  0  0  0  0  0
  -17.4359    3.1559  -16.3085 H   0  0  0  0  0  0  0  0  0  0  0  0
  -18.9377    2.1089  -15.3254 C   0  0  0  0  0  0  0  0  0  0  0  0
  -19.7643    3.1254  -14.8156 C   0  0  0  0  0  0  0  0  0  0  0  0
  -21.0368    2.8487  -14.2993 C   0  0  0  0  0  0  0  0  0  0  0  0
  -21.4908    1.5333  -14.2641 C   0  0  0  0  0  0  0  0  0  0  0  0
  -20.6879    0.5124  -14.7979 C   0  0  0  0  0  0  0  0  0  0  0  0
  -19.4253    0.8021  -15.3272 C   0  0  0  0  0  0  0  0  0  0  0  0
  -22.8234    1.2138  -13.6298 C   0  0  0  0  0  0  0  0  0  0  0  0
  -23.1353   -0.2798  -13.5941 C   0  0  0  0  0  0  0  0  0  0  0  0
  -24.1257   -0.6291  -14.5548 O   0  0  0  0  0  0  0  0  0  0  0  0
  -24.9584   -0.2202  -14.2567 H   0  0  0  0  0  0  0  0  0  0  0  0
 17 18  3  0  0  0
 18  1  1  0  0  0
  1  2  1  0  0  0
  1  6  2  0  0  0
  2  3  2  0  0  0
  3  4  1  0  0  0
  4 19  1  0  0  0
  4  5  2  0  0  0
 19 21  1  0  0  0
 19 20  1  0  0  0
 21 22  1  0  0  0
 21 26  2  0  0  0
 22 23  2  0  0  0
 23 24  1  0  0  0
 24 27  1  0  0  0
 24 25  2  0  0  0
 27 28  1  0  0  0
 28 29  1  0  0  0
 29 30  1  0  0  0
 25 26  1  0  0  0
  5  6  1  0  0  0
  6  7  1  0  0  0
  7  8  1  0  0  0
  7 15  2  0  0  0
  8  9  2  0  0  0
  9 10  1  0  0  0
 10 11  1  0  0  0
 10 14  2  0  0  0
 11 12  1  0  0  0
 11 16  1  0  0  0
 12 13  2  0  0  0
 13 14  1  0  0  0
 14 15  1  0  0  0
M  END
> <minimizedAffinity>
-9.01288

$$$$
