CHEMBL4752530


 30 33  0  0  0  0  0  0  0  0999 V2000
  -30.1651   -7.5237   -7.3038 N   0  0  0  0  0  0  0  0  0  0  0  0
  -29.5848   -8.6691   -7.1395 C   0  0  0  0  0  0  0  0  0  0  0  0
  -29.1803   -9.4039   -5.8486 C   0  0  0  0  0  0  0  0  0  0  0  0
  -29.3555   -9.0324   -4.7072 O   0  0  0  0  0  0  0  0  0  0  0  0
  -28.5465  -10.5671   -6.2796 N   0  0  0  0  0  0  0  0  0  0  0  0
  -28.5661  -10.6581   -7.6818 C   0  0  0  0  0  0  0  0  0  0  0  0
  -28.1042  -11.6726   -8.5026 C   0  0  0  0  0  0  0  0  0  0  0  0
  -28.2525  -11.5164   -9.8894 C   0  0  0  0  0  0  0  0  0  0  0  0
  -28.8465  -10.3592  -10.4289 C   0  0  0  0  0  0  0  0  0  0  0  0
  -29.0062  -10.2075  -12.1358 Cl  0  0  0  0  0  0  0  0  0  0  0  0
  -29.3159   -9.3438   -9.6020 C   0  0  0  0  0  0  0  0  0  0  0  0
  -29.1663   -9.5304   -8.2401 C   0  0  0  0  0  0  0  0  0  0  0  0
  -28.8310   -3.5469   -5.7211 C   0  0  0  0  0  0  0  0  0  0  0  0
  -28.8869   -4.8555   -6.8944 S   0  0  0  0  0  0  0  0  0  0  0  0
  -30.0642   -5.7453   -5.8936 C   0  0  0  0  0  0  0  0  0  0  0  0
  -30.5509   -6.9238   -6.1167 N   0  0  0  0  0  0  0  0  0  0  0  0
  -30.3612   -4.9624   -4.8100 N   0  0  0  0  0  0  0  0  0  0  0  0
  -29.6855   -3.7607   -4.6979 C   0  0  0  0  0  0  0  0  0  0  0  0
  -29.9480   -2.8707   -3.5273 C   0  0  0  0  0  0  0  0  0  0  0  0
  -30.9616   -5.3145   -4.0788 H   0  0  0  0  0  0  0  0  0  0  0  0
  -28.0582   -1.4631   -7.0441 C   0  0  0  0  0  0  0  0  0  0  0  0
  -27.8933   -2.3981   -5.8715 C   0  0  0  0  0  0  0  0  0  0  0  0
  -26.9831   -2.2173   -5.0601 O   0  0  0  0  0  0  0  0  0  0  0  0
  -27.7751  -11.4083   -5.3923 C   0  0  0  0  0  0  0  0  0  0  0  0
  -26.4228  -10.7958   -5.0881 C   0  0  0  0  0  0  0  0  0  0  0  0
  -25.4221  -10.7595   -6.0716 C   0  0  0  0  0  0  0  0  0  0  0  0
  -24.1440  -10.2845   -5.7686 C   0  0  0  0  0  0  0  0  0  0  0  0
  -23.8492   -9.8435   -4.4795 C   0  0  0  0  0  0  0  0  0  0  0  0
  -24.8394   -9.8592   -3.4984 C   0  0  0  0  0  0  0  0  0  0  0  0
  -26.1163  -10.3270   -3.8014 C   0  0  0  0  0  0  0  0  0  0  0  0
 21 22  1  0  0  0
 22 23  2  0  0  0
 22 13  1  0  0  0
 13 14  1  0  0  0
 13 18  2  0  0  0
 14 15  1  0  0  0
 15 16  2  0  0  0
 15 17  1  0  0  0
 16  1  1  0  0  0
  1  2  2  0  0  0
  2  3  1  0  0  0
  2 12  1  0  0  0
  3  4  2  0  0  0
  3  5  1  0  0  0
  5 24  1  0  0  0
  5  6  1  0  0  0
 24 25  1  0  0  0
 25 26  1  0  0  0
 25 30  2  0  0  0
 26 27  2  0  0  0
 27 28  1  0  0  0
 28 29  2  0  0  0
 29 30  1  0  0  0
  6  7  1  0  0  0
  6 12  2  0  0  0
  7  8  2  0  0  0
  8  9  1  0  0  0
  9 10  1  0  0  0
  9 11  2  0  0  0
 11 12  1  0  0  0
 17 18  1  0  0  0
 17 20  1  0  0  0
 18 19  1  0  0  0
M  END
> <minimizedAffinity>
-8.19124

$$$$
