CHEMBL520975


 23 26  0  0  0  0  0  0  0  0999 V2000
  -28.9141   -2.1247   -4.5865 C   0  0  0  0  0  0  0  0  0  0  0  0
  -28.6744   -2.9890   -3.5172 C   0  0  0  0  0  0  0  0  0  0  0  0
  -28.8901   -4.3677   -3.6359 C   0  0  0  0  0  0  0  0  0  0  0  0
  -29.3560   -4.8454   -4.8635 C   0  0  0  0  0  0  0  0  0  0  0  0
  -29.7099   -6.1186   -5.2418 N   0  0  0  0  0  0  0  0  0  0  0  0
  -30.1728   -6.1430   -6.5394 C   0  0  0  0  0  0  0  0  0  0  0  0
  -30.0605   -4.8429   -7.0089 C   0  0  0  0  0  0  0  0  0  0  0  0
  -29.5840   -4.0169   -5.9554 C   0  0  0  0  0  0  0  0  0  0  0  0
  -29.3547   -2.6356   -5.8154 C   0  0  0  0  0  0  0  0  0  0  0  0
  -29.7493   -6.9073   -4.6058 H   0  0  0  0  0  0  0  0  0  0  0  0
  -30.7208   -7.3359   -7.1918 C   0  0  0  0  0  0  0  0  0  0  0  0
  -32.0219   -7.7618   -6.8632 C   0  0  0  0  0  0  0  0  0  0  0  0
  -32.5650   -8.9544   -7.3764 C   0  0  0  0  0  0  0  0  0  0  0  0
  -31.8163   -9.7710   -8.2223 C   0  0  0  0  0  0  0  0  0  0  0  0
  -30.5407   -9.3570   -8.5615 C   0  0  0  0  0  0  0  0  0  0  0  0
  -30.0162   -8.1485   -8.0779 C   0  0  0  0  0  0  0  0  0  0  0  0
  -28.6728   -8.0112   -8.6767 C   0  0  0  0  0  0  0  0  0  0  0  0
  -27.9237   -7.0567   -8.6133 O   0  0  0  0  0  0  0  0  0  0  0  0
  -28.4252   -9.1578   -9.3965 N   0  0  0  0  0  0  0  0  0  0  0  0
  -29.5404  -10.0635   -9.4138 C   0  0  0  0  0  0  0  0  0  0  0  0
  -27.5671   -9.2699   -9.9196 H   0  0  0  0  0  0  0  0  0  0  0  0
  -27.6527   -0.2301   -5.2678 C   0  0  0  0  0  0  0  0  0  0  0  0
  -28.7656   -0.7627   -4.5617 O   0  0  0  0  0  0  0  0  0  0  0  0
 22 23  1  0  0  0
 23  1  1  0  0  0
  1  2  1  0  0  0
  1  9  2  0  0  0
  2  3  2  0  0  0
  3  4  1  0  0  0
  4  5  1  0  0  0
  4  8  2  0  0  0
  5  6  1  0  0  0
  5 10  1  0  0  0
  6 11  1  0  0  0
  6  7  2  0  0  0
 11 12  1  0  0  0
 11 16  2  0  0  0
 12 13  2  0  0  0
 13 14  1  0  0  0
 14 15  2  0  0  0
 15 16  1  0  0  0
 15 20  1  0  0  0
 16 17  1  0  0  0
 17 18  2  0  0  0
 17 19  1  0  0  0
 19 20  1  0  0  0
 19 21  1  0  0  0
  7  8  1  0  0  0
  8  9  1  0  0  0
M  END
> <minimizedAffinity>
-8.04265

$$$$
