CHEMBL3322566


 48 52  0  0  0  0  0  0  0  0999 V2000
  -23.9125    0.1298  -13.0745 C   0  0  0  0  0  0  0  0  0  0  0  0
  -22.9089   -0.7809  -13.4547 C   0  0  0  0  0  0  0  0  0  0  0  0
  -21.6890   -0.3703  -13.9610 C   0  0  0  0  0  0  0  0  0  0  0  0
  -21.4927    0.9773  -14.1439 C   0  0  0  0  0  0  0  0  0  0  0  0
  -22.5083    1.8948  -13.8746 C   0  0  0  0  0  0  0  0  0  0  0  0
  -23.7311    1.5022  -13.3388 C   0  0  0  0  0  0  0  0  0  0  0  0
  -22.0660    3.1780  -14.2108 N   0  0  0  0  0  0  0  0  0  0  0  0
  -20.7497    3.1623  -14.6842 C   0  0  0  0  0  0  0  0  0  0  0  0
  -20.0917    4.1089  -15.0685 O   0  0  0  0  0  0  0  0  0  0  0  0
  -20.3219    1.7229  -14.6127 C   0  0  0  0  0  0  0  0  0  0  0  0
  -19.1631    1.0847  -14.8271 C   0  0  0  0  0  0  0  0  0  0  0  0
  -22.6070    4.0275  -14.1421 H   0  0  0  0  0  0  0  0  0  0  0  0
  -17.8899    1.5676  -15.2111 C   0  0  0  0  0  0  0  0  0  0  0  0
  -17.7222    2.6606  -16.0100 N   0  0  0  0  0  0  0  0  0  0  0  0
  -16.3799    2.9213  -16.1906 C   0  0  0  0  0  0  0  0  0  0  0  0
  -15.9760    4.0626  -17.0517 C   0  0  0  0  0  0  0  0  0  0  0  0
  -15.6517    1.9387  -15.5180 C   0  0  0  0  0  0  0  0  0  0  0  0
  -16.6280    1.0841  -14.8890 C   0  0  0  0  0  0  0  0  0  0  0  0
  -16.3594   -0.1089  -14.0246 C   0  0  0  0  0  0  0  0  0  0  0  0
  -18.4803    3.1980  -16.4238 H   0  0  0  0  0  0  0  0  0  0  0  0
  -14.1936    1.7385  -15.4717 C   0  0  0  0  0  0  0  0  0  0  0  0
  -13.5777    1.2373  -16.4097 O   0  0  0  0  0  0  0  0  0  0  0  0
  -13.5607    2.1093  -14.3052 N   0  0  0  0  0  0  0  0  0  0  0  0
  -14.1033    2.5536  -13.5821 H   0  0  0  0  0  0  0  0  0  0  0  0
  -12.1123    2.0192  -14.1767 C   0  0  0  0  0  0  0  0  0  0  0  0
  -11.4874    3.3037  -13.5976 C   0  0  0  0  0  0  0  0  0  0  0  0
  -10.8505    4.1932  -14.5891 N   0  0  0  0  0  0  0  0  0  0  0  0
  -11.3891    5.5623  -14.4972 C   0  0  0  0  0  0  0  0  0  0  0  0
  -12.6049    5.5609  -15.4040 C   0  0  0  0  0  0  0  0  0  0  0  0
  -12.1655    4.6872  -16.5619 C   0  0  0  0  0  0  0  0  0  0  0  0
  -11.0697    3.7919  -15.9892 C   0  0  0  0  0  0  0  0  0  0  0  0
  -25.9247   -1.3070  -12.9358 C   0  0  0  0  0  0  0  0  0  0  0  0
  -25.7506   -1.9016  -13.9975 O   0  0  0  0  0  0  0  0  0  0  0  0
  -25.0817   -0.3311  -12.4123 N   0  0  0  0  0  0  0  0  0  0  0  0
  -25.2187   -0.0350  -11.4540 H   0  0  0  0  0  0  0  0  0  0  0  0
  -27.1462   -1.6192  -12.1234 C   0  0  0  0  0  0  0  0  0  0  0  0
  -28.0264   -2.0914   -9.8535 N   0  0  0  0  0  0  0  0  0  0  0  0
  -26.9113   -1.8234  -10.6347 C   0  0  0  0  0  0  0  0  0  0  0  0
  -25.7622   -1.6791  -10.2110 O   0  0  0  0  0  0  0  0  0  0  0  0
  -28.9145   -2.1976  -10.3528 H   0  0  0  0  0  0  0  0  0  0  0  0
  -28.2417   -2.7769   -5.6794 C   0  0  0  0  0  0  0  0  0  0  0  0
  -27.8170   -1.5443   -6.1657 C   0  0  0  0  0  0  0  0  0  0  0  0
  -27.7309   -1.3145   -7.5404 C   0  0  0  0  0  0  0  0  0  0  0  0
  -28.0809   -2.2981   -8.4589 C   0  0  0  0  0  0  0  0  0  0  0  0
  -28.5041   -3.5449   -7.9728 C   0  0  0  0  0  0  0  0  0  0  0  0
  -28.5813   -3.7791   -6.5888 C   0  0  0  0  0  0  0  0  0  0  0  0
  -27.8505   -4.3871   -3.9833 C   0  0  0  0  0  0  0  0  0  0  0  0
  -28.3488   -3.1020   -4.3538 O   0  0  0  0  0  0  0  0  0  0  0  0
 47 48  1  0  0  0
 48 41  1  0  0  0
 41 42  1  0  0  0
 41 46  2  0  0  0
 42 43  2  0  0  0
 43 44  1  0  0  0
 44 37  1  0  0  0
 44 45  2  0  0  0
 37 38  1  0  0  0
 37 40  1  0  0  0
 38 39  2  0  0  0
 38 36  1  0  0  0
 36 32  1  0  0  0
 32 33  2  0  0  0
 32 34  1  0  0  0
 34  1  1  0  0  0
 34 35  1  0  0  0
  1  2  1  0  0  0
  1  6  2  0  0  0
  2  3  2  0  0  0
  3  4  1  0  0  0
  4  5  2  0  0  0
  4 10  1  0  0  0
  5  6  1  0  0  0
  5  7  1  0  0  0
  7  8  1  0  0  0
  7 12  1  0  0  0
  8  9  2  0  0  0
  8 10  1  0  0  0
 10 11  2  0  0  0
 11 13  1  0  0  0
 13 14  1  0  0  0
 13 18  2  0  0  0
 14 15  1  0  0  0
 14 20  1  0  0  0
 15 16  1  0  0  0
 15 17  2  0  0  0
 17 21  1  0  0  0
 17 18  1  0  0  0
 21 22  2  0  0  0
 21 23  1  0  0  0
 23 25  1  0  0  0
 23 24  1  0  0  0
 25 26  1  0  0  0
 26 27  1  0  0  0
 27 28  1  0  0  0
 27 31  1  0  0  0
 28 29  1  0  0  0
 29 30  1  0  0  0
 30 31  1  0  0  0
 18 19  1  0  0  0
 45 46  1  0  0  0
M  END
> <minimizedAffinity>
-11.56155

$$$$
