CHEMBL167890


 34 38  0  0  0  0  0  0  0  0999 V2000
  -13.7516   -1.2224  -13.9219 C   0  0  0  0  0  0  0  0  0  0  0  0
  -13.5243   -2.5893  -13.7391 C   0  0  0  0  0  0  0  0  0  0  0  0
  -14.3398   -3.3640  -12.8873 C   0  0  0  0  0  0  0  0  0  0  0  0
  -14.1239   -4.7218  -12.6132 C   0  0  0  0  0  0  0  0  0  0  0  0
  -14.9646   -5.4355  -11.8431 N   0  0  0  0  0  0  0  0  0  0  0  0
  -16.0199   -4.7881  -11.3486 C   0  0  0  0  0  0  0  0  0  0  0  0
  -16.2963   -3.4884  -11.5077 N   0  0  0  0  0  0  0  0  0  0  0  0
  -15.4544   -2.7900  -12.2734 C   0  0  0  0  0  0  0  0  0  0  0  0
  -15.6979   -1.4380  -12.4995 C   0  0  0  0  0  0  0  0  0  0  0  0
  -14.8820   -0.6540  -13.3294 C   0  0  0  0  0  0  0  0  0  0  0  0
  -13.0850   -0.3885  -16.0687 C   0  0  0  0  0  0  0  0  0  0  0  0
  -12.9233   -0.4248  -14.6549 O   0  0  0  0  0  0  0  0  0  0  0  0
  -12.9504   -5.3561  -13.1129 N   0  0  0  0  0  0  0  0  0  0  0  0
  -12.2523   -5.3948  -12.3728 H   0  0  0  0  0  0  0  0  0  0  0  0
  -12.9886   -6.5685  -13.8344 C   0  0  0  0  0  0  0  0  0  0  0  0
  -13.4201   -6.6286  -15.1712 C   0  0  0  0  0  0  0  0  0  0  0  0
  -13.7264   -5.5000  -15.8319 F   0  0  0  0  0  0  0  0  0  0  0  0
  -13.5231   -7.8420  -15.8641 C   0  0  0  0  0  0  0  0  0  0  0  0
  -13.1712   -9.0367  -15.2398 C   0  0  0  0  0  0  0  0  0  0  0  0
  -12.6998   -8.9656  -13.9449 C   0  0  0  0  0  0  0  0  0  0  0  0
  -12.5989   -7.7710  -13.2644 C   0  0  0  0  0  0  0  0  0  0  0  0
  -12.1107   -7.9425  -12.0002 O   0  0  0  0  0  0  0  0  0  0  0  0
  -11.9399   -9.3775  -11.9645 C   0  0  0  0  0  0  0  0  0  0  0  0
  -12.2997  -10.0289  -13.1982 O   0  0  0  0  0  0  0  0  0  0  0  0
  -15.3132    0.6446  -13.4471 O   0  0  0  0  0  0  0  0  0  0  0  0
  -16.7131    0.9227  -13.3080 C   0  0  0  0  0  0  0  0  0  0  0  0
  -17.3815    1.4278  -14.5924 C   0  0  0  0  0  0  0  0  0  0  0  0
  -18.7298    2.0890  -14.2846 C   0  0  0  0  0  0  0  0  0  0  0  0
  -19.7523    1.8876  -15.3285 N   0  0  0  0  0  0  0  0  0  0  0  0
  -20.6301    3.0829  -15.4197 C   0  0  0  0  0  0  0  0  0  0  0  0
  -21.5882    3.2445  -14.2230 C   0  0  0  0  0  0  0  0  0  0  0  0
  -22.3938    2.0746  -14.0322 O   0  0  0  0  0  0  0  0  0  0  0  0
  -21.5758    0.9076  -13.8723 C   0  0  0  0  0  0  0  0  0  0  0  0
  -20.6345    0.7231  -15.0741 C   0  0  0  0  0  0  0  0  0  0  0  0
 11 12  1  0  0  0
 12  1  1  0  0  0
  1  2  1  0  0  0
  1 10  2  0  0  0
  2  3  2  0  0  0
  3  4  1  0  0  0
  3  8  1  0  0  0
  4 13  1  0  0  0
  4  5  2  0  0  0
 13 15  1  0  0  0
 13 14  1  0  0  0
 15 16  1  0  0  0
 15 21  2  0  0  0
 16 17  1  0  0  0
 16 18  2  0  0  0
 18 19  1  0  0  0
 19 20  2  0  0  0
 20 21  1  0  0  0
 20 24  1  0  0  0
 21 22  1  0  0  0
 22 23  1  0  0  0
 23 24  1  0  0  0
  5  6  1  0  0  0
  6  7  2  0  0  0
  7  8  1  0  0  0
  8  9  2  0  0  0
  9 10  1  0  0  0
 10 25  1  0  0  0
 25 26  1  0  0  0
 26 27  1  0  0  0
 27 28  1  0  0  0
 28 29  1  0  0  0
 29 30  1  0  0  0
 29 34  1  0  0  0
 30 31  1  0  0  0
 31 32  1  0  0  0
 32 33  1  0  0  0
 33 34  1  0  0  0
M  END
> <minimizedAffinity>
-7.29049

$$$$
