CHEMBL243919


 50 55  0  0  0  0  0  0  0  0999 V2000
  -23.7743    0.5889  -13.4475 C   0  0  0  0  0  0  0  0  0  0  0  0
  -24.1823   -0.3781  -14.3723 C   0  0  0  0  0  0  0  0  0  0  0  0
  -25.0255   -1.4128  -13.9958 C   0  0  0  0  0  0  0  0  0  0  0  0
  -25.4209   -1.4823  -12.6595 C   0  0  0  0  0  0  0  0  0  0  0  0
  -26.2496   -2.3893  -12.0988 N   0  0  0  0  0  0  0  0  0  0  0  0
  -26.2974   -2.1447  -10.8159 C   0  0  0  0  0  0  0  0  0  0  0  0
  -25.5257   -1.0304  -10.5293 N   0  0  0  0  0  0  0  0  0  0  0  0
  -24.9750   -0.5626  -11.7194 C   0  0  0  0  0  0  0  0  0  0  0  0
  -24.1656    0.5249  -12.0888 C   0  0  0  0  0  0  0  0  0  0  0  0
  -25.3583   -0.6336   -9.6139 H   0  0  0  0  0  0  0  0  0  0  0  0
  -27.0239   -2.9023   -9.9140 N   0  0  0  0  0  0  0  0  0  0  0  0
  -27.5419   -2.2341   -8.7978 C   0  0  0  0  0  0  0  0  0  0  0  0
  -27.5033   -1.0249   -8.5908 O   0  0  0  0  0  0  0  0  0  0  0  0
  -27.1711   -3.8888  -10.0633 H   0  0  0  0  0  0  0  0  0  0  0  0
  -28.2746   -3.0203   -7.7714 C   0  0  0  0  0  0  0  0  0  0  0  0
  -28.6093   -4.3426   -8.1266 C   0  0  0  0  0  0  0  0  0  0  0  0
  -29.4366   -5.1123   -7.3100 C   0  0  0  0  0  0  0  0  0  0  0  0
  -29.9429   -4.5727   -6.1362 C   0  0  0  0  0  0  0  0  0  0  0  0
  -29.6249   -3.2609   -5.7768 C   0  0  0  0  0  0  0  0  0  0  0  0
  -28.7933   -2.4454   -6.5753 C   0  0  0  0  0  0  0  0  0  0  0  0
  -28.5576   -1.0654   -6.0692 C   0  0  0  0  0  0  0  0  0  0  0  0
  -27.8081   -0.6292   -4.9786 C   0  0  0  0  0  0  0  0  0  0  0  0
  -27.9279    0.7768   -4.8641 C   0  0  0  0  0  0  0  0  0  0  0  0
  -28.7553    1.1882   -5.8774 C   0  0  0  0  0  0  0  0  0  0  0  0
  -29.1448    0.0778   -6.5799 N   0  0  0  0  0  0  0  0  0  0  0  0
  -29.7834    0.0870   -7.3726 H   0  0  0  0  0  0  0  0  0  0  0  0
  -23.0763    1.6286  -14.0279 O   0  0  0  0  0  0  0  0  0  0  0  0
  -19.0228    1.4758  -15.0244 C   0  0  0  0  0  0  0  0  0  0  0  0
  -19.8132    0.3247  -15.1263 C   0  0  0  0  0  0  0  0  0  0  0  0
  -21.1730    0.3469  -14.8346 C   0  0  0  0  0  0  0  0  0  0  0  0
  -21.7511    1.5068  -14.3447 C   0  0  0  0  0  0  0  0  0  0  0  0
  -20.9785    2.6664  -14.2282 C   0  0  0  0  0  0  0  0  0  0  0  0
  -19.6168    2.6520  -14.5586 C   0  0  0  0  0  0  0  0  0  0  0  0
  -16.7269    1.0094  -13.3604 O   0  0  0  0  0  0  0  0  0  0  0  0
  -16.5996    1.2578  -14.5549 C   0  0  0  0  0  0  0  0  0  0  0  0
  -17.6583    1.5086  -15.4093 N   0  0  0  0  0  0  0  0  0  0  0  0
  -15.3750    1.2870  -15.1853 N   0  0  0  0  0  0  0  0  0  0  0  0
  -17.4646    1.5470  -16.3985 H   0  0  0  0  0  0  0  0  0  0  0  0
  -15.3297    1.6330  -16.1334 H   0  0  0  0  0  0  0  0  0  0  0  0
  -14.1316    0.9558  -14.5863 C   0  0  0  0  0  0  0  0  0  0  0  0
  -13.7363   -0.3529  -14.2630 C   0  0  0  0  0  0  0  0  0  0  0  0
  -12.4934   -0.6196  -13.6718 C   0  0  0  0  0  0  0  0  0  0  0  0
  -11.6229    0.4476  -13.4104 C   0  0  0  0  0  0  0  0  0  0  0  0
  -11.9971    1.7532  -13.7341 C   0  0  0  0  0  0  0  0  0  0  0  0
  -13.2399    1.9968  -14.3129 C   0  0  0  0  0  0  0  0  0  0  0  0
  -13.5848    3.2561  -14.6171 F   0  0  0  0  0  0  0  0  0  0  0  0
  -12.0999   -2.0377  -13.3222 C   0  0  0  0  0  0  0  0  0  0  0  0
  -13.1545   -2.8509  -13.0338 F   0  0  0  0  0  0  0  0  0  0  0  0
  -11.4250   -2.6505  -14.3337 F   0  0  0  0  0  0  0  0  0  0  0  0
  -11.2798   -2.0958  -12.2367 F   0  0  0  0  0  0  0  0  0  0  0  0
 34 35  2  0  0  0
 35 36  1  0  0  0
 35 37  1  0  0  0
 36 28  1  0  0  0
 36 38  1  0  0  0
 28 29  1  0  0  0
 28 33  2  0  0  0
 29 30  2  0  0  0
 30 31  1  0  0  0
 31 27  1  0  0  0
 31 32  2  0  0  0
 27  1  1  0  0  0
  1  2  1  0  0  0
  1  9  2  0  0  0
  2  3  2  0  0  0
  3  4  1  0  0  0
  4  5  1  0  0  0
  4  8  2  0  0  0
  5  6  2  0  0  0
  6 11  1  0  0  0
  6  7  1  0  0  0
 11 12  1  0  0  0
 11 14  1  0  0  0
 12 13  2  0  0  0
 12 15  1  0  0  0
 15 16  1  0  0  0
 15 20  2  0  0  0
 16 17  2  0  0  0
 17 18  1  0  0  0
 18 19  2  0  0  0
 19 20  1  0  0  0
 20 21  1  0  0  0
 21 22  2  0  0  0
 21 25  1  0  0  0
 22 23  1  0  0  0
 23 24  2  0  0  0
 24 25  1  0  0  0
 25 26  1  0  0  0
  7  8  1  0  0  0
  7 10  1  0  0  0
  8  9  1  0  0  0
 32 33  1  0  0  0
 37 40  1  0  0  0
 37 39  1  0  0  0
 40 41  1  0  0  0
 40 45  2  0  0  0
 41 42  2  0  0  0
 42 47  1  0  0  0
 42 43  1  0  0  0
 47 48  1  0  0  0
 47 49  1  0  0  0
 47 50  1  0  0  0
 43 44  2  0  0  0
 44 45  1  0  0  0
 45 46  1  0  0  0
M  END
> <minimizedAffinity>
-12.02325

$$$$
