CHEMBL453578


 37 41  0  0  0  0  0  0  0  0999 V2000
  -20.5118    1.9123  -15.0984 C   0  0  0  0  0  0  0  0  0  0  0  0
  -20.6070    0.5165  -15.0269 C   0  0  0  0  0  0  0  0  0  0  0  0
  -21.6539   -0.0959  -14.3315 C   0  0  0  0  0  0  0  0  0  0  0  0
  -22.6297    0.6813  -13.7027 C   0  0  0  0  0  0  0  0  0  0  0  0
  -22.5066    2.0782  -13.7308 C   0  0  0  0  0  0  0  0  0  0  0  0
  -21.4389    2.6918  -14.4049 C   0  0  0  0  0  0  0  0  0  0  0  0
  -23.7846    0.0407  -13.0582 C   0  0  0  0  0  0  0  0  0  0  0  0
  -23.9314    0.0909  -11.5685 C   0  0  0  0  0  0  0  0  0  0  0  0
  -24.8838   -0.4363  -10.8575 N   0  0  0  0  0  0  0  0  0  0  0  0
  -25.8529   -1.1020  -11.5567 C   0  0  0  0  0  0  0  0  0  0  0  0
  -26.9935   -1.7826  -11.1458 C   0  0  0  0  0  0  0  0  0  0  0  0
  -27.5651   -2.2563  -12.3464 C   0  0  0  0  0  0  0  0  0  0  0  0
  -26.8723   -1.9201  -13.4339 N   0  0  0  0  0  0  0  0  0  0  0  0
  -25.8258   -1.1853  -12.9518 N   0  0  0  0  0  0  0  0  0  0  0  0
  -24.7780   -0.5947  -13.7168 C   0  0  0  0  0  0  0  0  0  0  0  0
  -24.8550   -0.7368  -15.1039 N   0  0  0  0  0  0  0  0  0  0  0  0
  -25.4704   -1.5101  -15.3694 H   0  0  0  0  0  0  0  0  0  0  0  0
  -23.9567   -0.7361  -15.5776 H   0  0  0  0  0  0  0  0  0  0  0  0
  -27.4415   -1.9545   -9.7718 C   0  0  0  0  0  0  0  0  0  0  0  0
  -27.8194   -3.2124   -9.2868 C   0  0  0  0  0  0  0  0  0  0  0  0
  -28.2143   -3.3584   -7.9557 C   0  0  0  0  0  0  0  0  0  0  0  0
  -28.2153   -2.2391   -7.1416 C   0  0  0  0  0  0  0  0  0  0  0  0
  -27.8586   -1.0100   -7.5639 N   0  0  0  0  0  0  0  0  0  0  0  0
  -27.4869   -0.8963   -8.8660 C   0  0  0  0  0  0  0  0  0  0  0  0
  -17.3650    3.2041  -16.3992 N   0  0  0  0  0  0  0  0  0  0  0  0
  -18.2123    2.5862  -15.4896 C   0  0  0  0  0  0  0  0  0  0  0  0
  -17.8563    2.0871  -14.4260 O   0  0  0  0  0  0  0  0  0  0  0  0
  -19.5358    2.5443  -15.9202 N   0  0  0  0  0  0  0  0  0  0  0  0
  -17.7942    3.7596  -17.1237 H   0  0  0  0  0  0  0  0  0  0  0  0
  -19.6445    2.4245  -16.9166 H   0  0  0  0  0  0  0  0  0  0  0  0
  -12.9505    0.9091  -16.6731 C   0  0  0  0  0  0  0  0  0  0  0  0
  -13.7742    2.1380  -16.4174 C   0  0  0  0  0  0  0  0  0  0  0  0
  -13.1320    3.3313  -16.0725 C   0  0  0  0  0  0  0  0  0  0  0  0
  -13.8766    4.4770  -15.8326 C   0  0  0  0  0  0  0  0  0  0  0  0
  -15.2667    4.4405  -15.9335 C   0  0  0  0  0  0  0  0  0  0  0  0
  -15.9470    3.2681  -16.2873 C   0  0  0  0  0  0  0  0  0  0  0  0
  -15.1831    2.1123  -16.5235 C   0  0  0  0  0  0  0  0  0  0  0  0
 31 32  1  0  0  0
 32 33  1  0  0  0
 32 37  2  0  0  0
 33 34  2  0  0  0
 34 35  1  0  0  0
 35 36  2  0  0  0
 36 25  1  0  0  0
 36 37  1  0  0  0
 25 26  1  0  0  0
 25 29  1  0  0  0
 26 27  2  0  0  0
 26 28  1  0  0  0
 28  1  1  0  0  0
 28 30  1  0  0  0
  1  2  1  0  0  0
  1  6  2  0  0  0
  2  3  2  0  0  0
  3  4  1  0  0  0
  4  7  1  0  0  0
  4  5  2  0  0  0
  7  8  1  0  0  0
  7 15  2  0  0  0
  8  9  2  0  0  0
  9 10  1  0  0  0
 10 11  2  0  0  0
 10 14  1  0  0  0
 11 19  1  0  0  0
 11 12  1  0  0  0
 19 20  1  0  0  0
 19 24  2  0  0  0
 20 21  2  0  0  0
 21 22  1  0  0  0
 22 23  2  0  0  0
 23 24  1  0  0  0
 12 13  2  0  0  0
 13 14  1  0  0  0
 14 15  1  0  0  0
 15 16  1  0  0  0
 16 17  1  0  0  0
 16 18  1  0  0  0
  5  6  1  0  0  0
M  END
> <minimizedAffinity>
-9.42296

$$$$
