CHEMBL4294161


 25 28  0  0  0  0  0  0  0  0999 V2000
  -29.7425   -4.8165   -6.6699 C   0  0  0  0  0  0  0  0  0  0  0  0
  -28.9377   -4.9919   -7.7275 N   0  0  0  0  0  0  0  0  0  0  0  0
  -28.4939   -6.2485   -7.9387 C   0  0  0  0  0  0  0  0  0  0  0  0
  -28.8207   -7.3270   -7.1410 C   0  0  0  0  0  0  0  0  0  0  0  0
  -29.6310   -7.0304   -6.0563 C   0  0  0  0  0  0  0  0  0  0  0  0
  -30.1285   -5.7944   -5.8388 N   0  0  0  0  0  0  0  0  0  0  0  0
  -29.9074   -7.9565   -5.0397 N   0  0  0  0  0  0  0  0  0  0  0  0
  -28.8913   -8.6544   -4.4933 C   0  0  0  0  0  0  0  0  0  0  0  0
  -28.6545   -8.7332   -3.1801 N   0  0  0  0  0  0  0  0  0  0  0  0
  -27.4755   -9.3798   -3.1074 N   0  0  0  0  0  0  0  0  0  0  0  0
  -26.9536   -9.7303   -4.3228 C   0  0  0  0  0  0  0  0  0  0  0  0
  -25.6655  -10.4344   -4.4772 C   0  0  0  0  0  0  0  0  0  0  0  0
  -27.8730   -9.2900   -5.2383 C   0  0  0  0  0  0  0  0  0  0  0  0
  -27.8091   -9.5504   -6.6045 N   0  0  0  0  0  0  0  0  0  0  0  0
  -28.2946   -8.6886   -7.4517 C   0  0  0  0  0  0  0  0  0  0  0  0
  -30.4847   -7.4843   -4.3511 H   0  0  0  0  0  0  0  0  0  0  0  0
  -27.0773   -9.5384   -2.1877 H   0  0  0  0  0  0  0  0  0  0  0  0
  -28.3088   -9.1453   -8.8912 C   0  0  0  0  0  0  0  0  0  0  0  0
  -29.4716   -9.6395   -9.4987 C   0  0  0  0  0  0  0  0  0  0  0  0
  -29.4292  -10.1174  -10.8119 C   0  0  0  0  0  0  0  0  0  0  0  0
  -28.2280  -10.1190  -11.5199 C   0  0  0  0  0  0  0  0  0  0  0  0
  -27.0658   -9.6385  -10.9206 C   0  0  0  0  0  0  0  0  0  0  0  0
  -27.1046   -9.1566   -9.6108 C   0  0  0  0  0  0  0  0  0  0  0  0
  -28.7014   -2.2952   -6.4453 C   0  0  0  0  0  0  0  0  0  0  0  0
  -30.2882   -3.1627   -6.3331 S   0  0  0  0  0  0  0  0  0  0  0  0
 24 25  1  0  0  0
 25  1  1  0  0  0
  1  2  1  0  0  0
  1  6  2  0  0  0
  2  3  2  0  0  0
  3  4  1  0  0  0
  4  5  2  0  0  0
  4 15  1  0  0  0
  5  6  1  0  0  0
  5  7  1  0  0  0
  7  8  1  0  0  0
  7 16  1  0  0  0
  8  9  2  0  0  0
  8 13  1  0  0  0
  9 10  1  0  0  0
 10 11  1  0  0  0
 10 17  1  0  0  0
 11 12  1  0  0  0
 11 13  2  0  0  0
 13 14  1  0  0  0
 14 15  2  0  0  0
 15 18  1  0  0  0
 18 19  1  0  0  0
 18 23  2  0  0  0
 19 20  2  0  0  0
 20 21  1  0  0  0
 21 22  2  0  0  0
 22 23  1  0  0  0
M  END
> <minimizedAffinity>
-7.42047

$$$$
