CHEMBL370199


 23 24  0  0  0  0  0  0  0  0999 V2000
  -29.8075   -3.7240   -6.0443 C   0  0  0  0  0  0  0  0  0  0  0  0
  -29.2252   -4.3477   -7.1608 C   0  0  0  0  0  0  0  0  0  0  0  0
  -29.5270   -6.0838   -7.1514 S   0  0  0  0  0  0  0  0  0  0  0  0
  -30.2860   -5.9526   -5.6881 C   0  0  0  0  0  0  0  0  0  0  0  0
  -30.9192   -6.7356   -4.7904 N   0  0  0  0  0  0  0  0  0  0  0  0
  -31.3832   -6.0186   -3.7271 N   0  0  0  0  0  0  0  0  0  0  0  0
  -31.0336   -4.7424   -4.0052 C   0  0  0  0  0  0  0  0  0  0  0  0
  -31.4098   -3.6369   -3.0957 C   0  0  0  0  0  0  0  0  0  0  0  0
  -30.3424   -4.7072   -5.2122 C   0  0  0  0  0  0  0  0  0  0  0  0
  -31.0944   -7.7340   -4.8198 H   0  0  0  0  0  0  0  0  0  0  0  0
  -28.3810   -3.7511   -8.1910 C   0  0  0  0  0  0  0  0  0  0  0  0
  -27.4775   -4.5710   -8.8100 N   0  0  0  0  0  0  0  0  0  0  0  0
  -28.3837   -2.5589   -8.4969 O   0  0  0  0  0  0  0  0  0  0  0  0
  -27.3689   -5.5411   -8.5552 H   0  0  0  0  0  0  0  0  0  0  0  0
  -26.8609   -4.1548   -9.4925 H   0  0  0  0  0  0  0  0  0  0  0  0
  -28.7588   -1.7470   -5.1392 C   0  0  0  0  0  0  0  0  0  0  0  0
  -27.7336   -2.2839   -4.7472 O   0  0  0  0  0  0  0  0  0  0  0  0
  -29.8228   -2.3622   -5.7889 N   0  0  0  0  0  0  0  0  0  0  0  0
  -30.3752   -1.7533   -6.3830 H   0  0  0  0  0  0  0  0  0  0  0  0
  -28.9350   -0.2142   -5.0906 C   0  0  0  0  0  0  0  0  0  0  0  0
  -28.0248    0.5185   -4.7386 O   0  0  0  0  0  0  0  0  0  0  0  0
  -30.3046    1.4104   -6.0441 C   0  0  0  0  0  0  0  0  0  0  0  0
  -30.1955    0.1391   -5.4090 O   0  0  0  0  0  0  0  0  0  0  0  0
 22 23  1  0  0  0
 23 20  1  0  0  0
 20 21  2  0  0  0
 20 16  1  0  0  0
 16 17  2  0  0  0
 16 18  1  0  0  0
 18  1  1  0  0  0
 18 19  1  0  0  0
  1  2  2  0  0  0
  1  9  1  0  0  0
  2 11  1  0  0  0
  2  3  1  0  0  0
 11 12  1  0  0  0
 11 13  2  0  0  0
 12 14  1  0  0  0
 12 15  1  0  0  0
  3  4  1  0  0  0
  4  5  1  0  0  0
  4  9  2  0  0  0
  5  6  1  0  0  0
  5 10  1  0  0  0
  6  7  2  0  0  0
  7  8  1  0  0  0
  7  9  1  0  0  0
M  END
> <minimizedAffinity>
-6.61320

$$$$
