CHEMBL1973937


 33 36  0  0  0  0  0  0  0  0999 V2000
  -27.7229   -2.0333   -9.3250 C   0  0  0  0  0  0  0  0  0  0  0  0
  -26.3224   -1.9584   -9.2634 C   0  0  0  0  0  0  0  0  0  0  0  0
  -25.5599   -1.5176  -10.3449 C   0  0  0  0  0  0  0  0  0  0  0  0
  -26.1622   -1.1910  -11.5573 C   0  0  0  0  0  0  0  0  0  0  0  0
  -27.5555   -1.2037  -11.6299 C   0  0  0  0  0  0  0  0  0  0  0  0
  -28.3224   -1.5936  -10.5157 C   0  0  0  0  0  0  0  0  0  0  0  0
  -30.9333   -4.1192   -4.8874 C   0  0  0  0  0  0  0  0  0  0  0  0
  -30.0877   -3.5641   -5.9956 C   0  0  0  0  0  0  0  0  0  0  0  0
  -29.9091   -4.2864   -7.1767 C   0  0  0  0  0  0  0  0  0  0  0  0
  -29.1224   -3.7889   -8.2121 C   0  0  0  0  0  0  0  0  0  0  0  0
  -28.4807   -2.5242   -8.1530 C   0  0  0  0  0  0  0  0  0  0  0  0
  -28.6640   -1.7649   -6.9595 C   0  0  0  0  0  0  0  0  0  0  0  0
  -28.2984   -0.4836   -6.4307 C   0  0  0  0  0  0  0  0  0  0  0  0
  -27.5992    0.4744   -7.0639 N   0  0  0  0  0  0  0  0  0  0  0  0
  -28.7421   -0.2806   -5.1973 N   0  0  0  0  0  0  0  0  0  0  0  0
  -29.4197   -1.3969   -4.9220 N   0  0  0  0  0  0  0  0  0  0  0  0
  -29.4410   -2.3180   -5.9298 C   0  0  0  0  0  0  0  0  0  0  0  0
  -27.7006    0.5619   -8.0688 H   0  0  0  0  0  0  0  0  0  0  0  0
  -27.5944    1.3734   -6.5939 H   0  0  0  0  0  0  0  0  0  0  0  0
  -29.8704   -1.4705   -4.0161 H   0  0  0  0  0  0  0  0  0  0  0  0
  -25.4068   -0.8327  -12.6965 N   0  0  0  0  0  0  0  0  0  0  0  0
  -24.2773   -0.0313  -12.6507 C   0  0  0  0  0  0  0  0  0  0  0  0
  -23.7120    0.3252  -11.6233 O   0  0  0  0  0  0  0  0  0  0  0  0
  -23.8718    0.3557  -13.9201 N   0  0  0  0  0  0  0  0  0  0  0  0
  -25.5076   -1.4065  -13.5213 H   0  0  0  0  0  0  0  0  0  0  0  0
  -24.6308    0.5021  -14.5704 H   0  0  0  0  0  0  0  0  0  0  0  0
  -22.7068    1.1358  -14.1080 C   0  0  0  0  0  0  0  0  0  0  0  0
  -22.7335    2.5308  -13.9810 C   0  0  0  0  0  0  0  0  0  0  0  0
  -21.5835    3.2873  -14.2059 C   0  0  0  0  0  0  0  0  0  0  0  0
  -20.3993    2.6528  -14.5718 C   0  0  0  0  0  0  0  0  0  0  0  0
  -20.3718    1.2637  -14.6947 C   0  0  0  0  0  0  0  0  0  0  0  0
  -18.7772    0.4114  -15.2507 Br  0  0  0  0  0  0  0  0  0  0  0  0
  -21.5117    0.4975  -14.4418 C   0  0  0  0  0  0  0  0  0  0  0  0
  7  8  1  0  0  0
  8  9  1  0  0  0
  8 17  2  0  0  0
  9 10  2  0  0  0
 10 11  1  0  0  0
 11  1  1  0  0  0
 11 12  2  0  0  0
  1  2  1  0  0  0
  1  6  2  0  0  0
  2  3  2  0  0  0
  3  4  1  0  0  0
  4 21  1  0  0  0
  4  5  2  0  0  0
 21 22  1  0  0  0
 21 25  1  0  0  0
 22 23  2  0  0  0
 22 24  1  0  0  0
 24 27  1  0  0  0
 24 26  1  0  0  0
 27 28  1  0  0  0
 27 33  2  0  0  0
 28 29  2  0  0  0
 29 30  1  0  0  0
 30 31  2  0  0  0
 31 32  1  0  0  0
 31 33  1  0  0  0
  5  6  1  0  0  0
 12 13  1  0  0  0
 12 17  1  0  0  0
 13 14  1  0  0  0
 13 15  2  0  0  0
 14 18  1  0  0  0
 14 19  1  0  0  0
 15 16  1  0  0  0
 16 17  1  0  0  0
 16 20  1  0  0  0
M  END
> <minimizedAffinity>
-8.95567

$$$$
