CHEMBL377300


 29 32  0  0  0  0  0  0  0  0999 V2000
  -29.9919   -5.6260   -5.6274 C   0  0  0  0  0  0  0  0  0  0  0  0
  -30.1008   -6.2906   -4.5281 N   0  0  0  0  0  0  0  0  0  0  0  0
  -29.4220   -5.7959   -3.4436 C   0  0  0  0  0  0  0  0  0  0  0  0
  -28.7164   -4.7082   -3.3942 N   0  0  0  0  0  0  0  0  0  0  0  0
  -28.6386   -4.0421   -4.5560 N   0  0  0  0  0  0  0  0  0  0  0  0
  -27.9672   -2.8759   -4.7614 C   0  0  0  0  0  0  0  0  0  0  0  0
  -28.0634   -2.5637   -6.0992 C   0  0  0  0  0  0  0  0  0  0  0  0
  -28.9054   -3.5309   -6.7179 C   0  0  0  0  0  0  0  0  0  0  0  0
  -29.3459   -3.5868   -8.1391 C   0  0  0  0  0  0  0  0  0  0  0  0
  -29.2185   -4.4422   -5.7180 C   0  0  0  0  0  0  0  0  0  0  0  0
  -30.5969   -5.9591   -6.8229 O   0  0  0  0  0  0  0  0  0  0  0  0
  -28.6108  -11.4542  -11.2855 C   0  0  0  0  0  0  0  0  0  0  0  0
  -29.0452  -10.5544  -10.1902 C   0  0  0  0  0  0  0  0  0  0  0  0
  -28.4379   -9.4471   -9.6343 C   0  0  0  0  0  0  0  0  0  0  0  0
  -29.3711   -8.8364   -8.7517 C   0  0  0  0  0  0  0  0  0  0  0  0
  -29.3874   -7.6395   -8.0150 C   0  0  0  0  0  0  0  0  0  0  0  0
  -28.3342   -6.8078   -8.0464 F   0  0  0  0  0  0  0  0  0  0  0  0
  -30.5467   -7.2796   -7.3223 C   0  0  0  0  0  0  0  0  0  0  0  0
  -31.6693   -8.1077   -7.3117 C   0  0  0  0  0  0  0  0  0  0  0  0
  -31.6560   -9.3273   -7.9960 C   0  0  0  0  0  0  0  0  0  0  0  0
  -30.5067   -9.6486   -8.7295 C   0  0  0  0  0  0  0  0  0  0  0  0
  -30.2556  -10.7156   -9.5618 N   0  0  0  0  0  0  0  0  0  0  0  0
  -30.9153  -11.4578   -9.7527 H   0  0  0  0  0  0  0  0  0  0  0  0
  -27.4781   -1.5145   -6.7270 O   0  0  0  0  0  0  0  0  0  0  0  0
  -27.6068   -0.2747   -6.0090 C   0  0  0  0  0  0  0  0  0  0  0  0
  -28.8160    0.5143   -6.5181 C   0  0  0  0  0  0  0  0  0  0  0  0
  -29.9550    0.5488   -5.5049 C   0  0  0  0  0  0  0  0  0  0  0  0
  -28.4412    1.8570   -6.8329 O   0  0  0  0  0  0  0  0  0  0  0  0
  -28.0157    2.2180   -6.0344 H   0  0  0  0  0  0  0  0  0  0  0  0
 12 13  1  0  0  0
 13 14  2  0  0  0
 13 22  1  0  0  0
 14 15  1  0  0  0
 15 16  1  0  0  0
 15 21  2  0  0  0
 16 17  1  0  0  0
 16 18  2  0  0  0
 18 11  1  0  0  0
 18 19  1  0  0  0
 11  1  1  0  0  0
  1  2  2  0  0  0
  1 10  1  0  0  0
  2  3  1  0  0  0
  3  4  2  0  0  0
  4  5  1  0  0  0
  5  6  1  0  0  0
  5 10  1  0  0  0
  6  7  2  0  0  0
  7 24  1  0  0  0
  7  8  1  0  0  0
 24 25  1  0  0  0
 25 26  1  0  0  0
 26 27  1  0  0  0
 26 28  1  0  0  0
 28 29  1  0  0  0
  8  9  1  0  0  0
  8 10  2  0  0  0
 19 20  2  0  0  0
 20 21  1  0  0  0
 21 22  1  0  0  0
 22 23  1  0  0  0
M  END
> <minimizedAffinity>
-8.91144

$$$$
