CHEMBL595757


 28 30  0  0  0  0  0  0  0  0999 V2000
  -30.0425   -6.9904   -7.6587 C   0  0  0  0  0  0  0  0  0  0  0  0
  -28.7943   -7.3494   -8.1292 C   0  0  0  0  0  0  0  0  0  0  0  0
  -28.7683   -8.6494   -8.5187 O   0  0  0  0  0  0  0  0  0  0  0  0
  -30.0036   -9.1628   -8.2781 C   0  0  0  0  0  0  0  0  0  0  0  0
  -30.3419  -10.4097   -8.6173 N   0  0  0  0  0  0  0  0  0  0  0  0
  -31.6005  -10.6874   -8.2994 C   0  0  0  0  0  0  0  0  0  0  0  0
  -32.0914  -11.9135   -8.7101 N   0  0  0  0  0  0  0  0  0  0  0  0
  -32.4416   -9.9093   -7.6027 N   0  0  0  0  0  0  0  0  0  0  0  0
  -32.0565   -8.6653   -7.2471 C   0  0  0  0  0  0  0  0  0  0  0  0
  -32.9415   -7.9446   -6.4727 N   0  0  0  0  0  0  0  0  0  0  0  0
  -30.7983   -8.2133   -7.6560 C   0  0  0  0  0  0  0  0  0  0  0  0
  -31.3276  -12.5593   -8.8538 H   0  0  0  0  0  0  0  0  0  0  0  0
  -32.8524  -12.1997   -8.1120 H   0  0  0  0  0  0  0  0  0  0  0  0
  -33.8737   -8.3300   -6.4312 H   0  0  0  0  0  0  0  0  0  0  0  0
  -32.7996   -6.9639   -6.3055 H   0  0  0  0  0  0  0  0  0  0  0  0
  -30.5359   -5.6211   -7.2916 C   0  0  0  0  0  0  0  0  0  0  0  0
  -30.0980   -5.0631   -5.8970 C   0  0  0  0  0  0  0  0  0  0  0  0
  -29.4676   -2.6878   -5.0672 C   0  0  0  0  0  0  0  0  0  0  0  0
  -28.8347   -1.4493   -5.2633 C   0  0  0  0  0  0  0  0  0  0  0  0
  -28.0862   -1.1983   -6.4091 C   0  0  0  0  0  0  0  0  0  0  0  0
  -27.9576   -2.1866   -7.3722 C   0  0  0  0  0  0  0  0  0  0  0  0
  -28.5939   -3.4158   -7.1975 C   0  0  0  0  0  0  0  0  0  0  0  0
  -29.3598   -3.7069   -6.0494 C   0  0  0  0  0  0  0  0  0  0  0  0
  -29.4963   -2.7790   -2.6919 C   0  0  0  0  0  0  0  0  0  0  0  0
  -30.1770   -2.9823   -3.9293 O   0  0  0  0  0  0  0  0  0  0  0  0
  -29.3739   -6.1369   -5.0021 C   0  0  0  0  0  0  0  0  0  0  0  0
  -27.9424   -5.7114   -4.6303 C   0  0  0  0  0  0  0  0  0  0  0  0
  -30.1029   -6.4807   -3.6952 C   0  0  0  0  0  0  0  0  0  0  0  0
 24 25  1  0  0  0
 25 18  1  0  0  0
 18 19  1  0  0  0
 18 23  2  0  0  0
 19 20  2  0  0  0
 20 21  1  0  0  0
 21 22  2  0  0  0
 22 23  1  0  0  0
 23 17  1  0  0  0
 17 16  1  0  0  0
 17 26  1  0  0  0
 16  1  1  0  0  0
  1  2  2  0  0  0
  1 11  1  0  0  0
  2  3  1  0  0  0
  3  4  1  0  0  0
  4  5  1  0  0  0
  4 11  2  0  0  0
  5  6  2  0  0  0
  6  7  1  0  0  0
  6  8  1  0  0  0
  7 12  1  0  0  0
  7 13  1  0  0  0
  8  9  2  0  0  0
  9 10  1  0  0  0
  9 11  1  0  0  0
 10 14  1  0  0  0
 10 15  1  0  0  0
 26 27  1  0  0  0
 26 28  1  0  0  0
M  END
> <minimizedAffinity>
-7.88310

$$$$
