CHEMBL196615


 32 35  0  0  0  0  0  0  0  0999 V2000
  -20.5624    0.9164  -15.1667 C   0  0  0  0  0  0  0  0  0  0  0  0
  -19.5110    0.0344  -15.4404 C   0  0  0  0  0  0  0  0  0  0  0  0
  -18.1806    0.4534  -15.3471 C   0  0  0  0  0  0  0  0  0  0  0  0
  -17.8647    1.7859  -15.0777 C   0  0  0  0  0  0  0  0  0  0  0  0
  -18.9208    2.6693  -14.7909 C   0  0  0  0  0  0  0  0  0  0  0  0
  -20.2537    2.2375  -14.8312 C   0  0  0  0  0  0  0  0  0  0  0  0
  -21.4976    3.3503  -14.3774 Cl  0  0  0  0  0  0  0  0  0  0  0  0
  -16.4696    2.2523  -15.1058 C   0  0  0  0  0  0  0  0  0  0  0  0
  -16.1071    3.2715  -15.9732 C   0  0  0  0  0  0  0  0  0  0  0  0
  -14.4482    3.6504  -15.9132 S   0  0  0  0  0  0  0  0  0  0  0  0
  -14.1725    2.4884  -14.7044 C   0  0  0  0  0  0  0  0  0  0  0  0
  -12.9290    2.3328  -14.2207 N   0  0  0  0  0  0  0  0  0  0  0  0
  -12.8625    1.3952  -13.2796 C   0  0  0  0  0  0  0  0  0  0  0  0
  -13.8644    0.6366  -12.8221 N   0  0  0  0  0  0  0  0  0  0  0  0
  -15.0959    0.8041  -13.3398 C   0  0  0  0  0  0  0  0  0  0  0  0
  -16.0544   -0.0577  -12.8245 N   0  0  0  0  0  0  0  0  0  0  0  0
  -15.3150    1.7853  -14.3353 C   0  0  0  0  0  0  0  0  0  0  0  0
  -15.6073   -0.7811  -12.2713 H   0  0  0  0  0  0  0  0  0  0  0  0
  -16.7301   -0.3880  -13.5001 H   0  0  0  0  0  0  0  0  0  0  0  0
  -23.8033   -0.4440  -14.2488 N   0  0  0  0  0  0  0  0  0  0  0  0
  -22.4994   -0.0441  -14.0484 C   0  0  0  0  0  0  0  0  0  0  0  0
  -21.9004   -0.0982  -12.9772 O   0  0  0  0  0  0  0  0  0  0  0  0
  -21.9130    0.4708  -15.1953 N   0  0  0  0  0  0  0  0  0  0  0  0
  -24.1062   -0.5662  -15.2025 H   0  0  0  0  0  0  0  0  0  0  0  0
  -22.5358    1.0010  -15.7926 H   0  0  0  0  0  0  0  0  0  0  0  0
  -28.2201   -2.3280  -12.9978 C   0  0  0  0  0  0  0  0  0  0  0  0
  -26.8720   -1.7932  -12.6114 C   0  0  0  0  0  0  0  0  0  0  0  0
  -26.5224   -1.7147  -11.2595 C   0  0  0  0  0  0  0  0  0  0  0  0
  -25.2784   -1.2186  -10.8915 C   0  0  0  0  0  0  0  0  0  0  0  0
  -24.3791   -0.8009  -11.8670 C   0  0  0  0  0  0  0  0  0  0  0  0
  -24.6986   -0.8752  -13.2265 C   0  0  0  0  0  0  0  0  0  0  0  0
  -25.9522   -1.3717  -13.5925 C   0  0  0  0  0  0  0  0  0  0  0  0
 26 27  1  0  0  0
 27 28  1  0  0  0
 27 32  2  0  0  0
 28 29  2  0  0  0
 29 30  1  0  0  0
 30 31  2  0  0  0
 31 20  1  0  0  0
 31 32  1  0  0  0
 20 21  1  0  0  0
 20 24  1  0  0  0
 21 22  2  0  0  0
 21 23  1  0  0  0
 23  1  1  0  0  0
 23 25  1  0  0  0
  1  2  1  0  0  0
  1  6  2  0  0  0
  2  3  2  0  0  0
  3  4  1  0  0  0
  4  8  1  0  0  0
  4  5  2  0  0  0
  8  9  2  0  0  0
  8 17  1  0  0  0
  9 10  1  0  0  0
 10 11  1  0  0  0
 11 12  1  0  0  0
 11 17  2  0  0  0
 12 13  2  0  0  0
 13 14  1  0  0  0
 14 15  2  0  0  0
 15 16  1  0  0  0
 15 17  1  0  0  0
 16 18  1  0  0  0
 16 19  1  0  0  0
  5  6  1  0  0  0
  6  7  1  0  0  0
M  END
> <minimizedAffinity>
-9.33325

$$$$
