CHEMBL1681948


 34 36  0  0  0  0  0  0  0  0999 V2000
  -23.0157   -0.7708  -13.4795 C   0  0  0  0  0  0  0  0  0  0  0  0
  -22.8138   -1.0472  -12.1318 C   0  0  0  0  0  0  0  0  0  0  0  0
  -23.8301   -1.6083  -11.3638 C   0  0  0  0  0  0  0  0  0  0  0  0
  -25.0857   -1.8912  -11.9134 C   0  0  0  0  0  0  0  0  0  0  0  0
  -25.3221   -1.4842  -13.2431 C   0  0  0  0  0  0  0  0  0  0  0  0
  -26.8784   -1.7076  -13.9680 Cl  0  0  0  0  0  0  0  0  0  0  0  0
  -24.2934   -0.9311  -14.0258 C   0  0  0  0  0  0  0  0  0  0  0  0
  -26.0870   -2.5836  -11.1711 N   0  0  0  0  0  0  0  0  0  0  0  0
  -26.6188   -2.1493   -9.9602 C   0  0  0  0  0  0  0  0  0  0  0  0
  -26.3168   -1.0866   -9.4208 O   0  0  0  0  0  0  0  0  0  0  0  0
  -27.4951   -3.0517   -9.3950 N   0  0  0  0  0  0  0  0  0  0  0  0
  -26.2953   -3.5261  -11.4671 H   0  0  0  0  0  0  0  0  0  0  0  0
  -27.2765   -4.0168   -9.5785 H   0  0  0  0  0  0  0  0  0  0  0  0
  -28.0893   -2.7625   -8.1347 C   0  0  0  0  0  0  0  0  0  0  0  0
  -28.0523   -1.4602   -7.6158 C   0  0  0  0  0  0  0  0  0  0  0  0
  -28.5839   -1.1718   -6.3596 C   0  0  0  0  0  0  0  0  0  0  0  0
  -29.1698   -2.1873   -5.6095 C   0  0  0  0  0  0  0  0  0  0  0  0
  -29.2222   -3.4839   -6.1187 C   0  0  0  0  0  0  0  0  0  0  0  0
  -28.6892   -3.7894   -7.3839 C   0  0  0  0  0  0  0  0  0  0  0  0
  -28.6911   -5.2169   -7.8517 C   0  0  0  0  0  0  0  0  0  0  0  0
  -21.9838   -0.3190  -14.2850 O   0  0  0  0  0  0  0  0  0  0  0  0
  -20.5340    1.5640  -14.6626 C   0  0  0  0  0  0  0  0  0  0  0  0
  -20.4173    2.9508  -14.6525 C   0  0  0  0  0  0  0  0  0  0  0  0
  -19.2737    3.6178  -15.0912 N   0  0  0  0  0  0  0  0  0  0  0  0
  -21.4370    3.7661  -14.3339 N   0  0  0  0  0  0  0  0  0  0  0  0
  -22.5865    3.1784  -13.9916 C   0  0  0  0  0  0  0  0  0  0  0  0
  -22.7999    1.8629  -13.9326 N   0  0  0  0  0  0  0  0  0  0  0  0
  -21.7721    1.0641  -14.3054 C   0  0  0  0  0  0  0  0  0  0  0  0
  -18.4226    3.1661  -14.7548 H   0  0  0  0  0  0  0  0  0  0  0  0
  -19.3453    4.6041  -14.8716 H   0  0  0  0  0  0  0  0  0  0  0  0
  -18.2086    0.9615  -14.5681 N   0  0  0  0  0  0  0  0  0  0  0  0
  -19.3991    0.6949  -15.0094 C   0  0  0  0  0  0  0  0  0  0  0  0
  -16.2384   -0.0871  -14.0897 C   0  0  0  0  0  0  0  0  0  0  0  0
  -17.2955    0.0133  -15.0437 O   0  0  0  0  0  0  0  0  0  0  0  0
 33 34  1  0  0  0
 34 31  1  0  0  0
 31 32  2  0  0  0
 32 22  1  0  0  0
 22 23  1  0  0  0
 22 28  2  0  0  0
 23 24  1  0  0  0
 23 25  2  0  0  0
 24 29  1  0  0  0
 24 30  1  0  0  0
 25 26  1  0  0  0
 26 27  2  0  0  0
 27 28  1  0  0  0
 28 21  1  0  0  0
 21  1  1  0  0  0
  1  2  1  0  0  0
  1  7  2  0  0  0
  2  3  2  0  0  0
  3  4  1  0  0  0
  4  8  1  0  0  0
  4  5  2  0  0  0
  8  9  1  0  0  0
  8 12  1  0  0  0
  9 10  2  0  0  0
  9 11  1  0  0  0
 11 14  1  0  0  0
 11 13  1  0  0  0
 14 15  1  0  0  0
 14 19  2  0  0  0
 15 16  2  0  0  0
 16 17  1  0  0  0
 17 18  2  0  0  0
 18 19  1  0  0  0
 19 20  1  0  0  0
  5  6  1  0  0  0
  5  7  1  0  0  0
M  END
> <minimizedAffinity>
-10.65772

$$$$
