CHEMBL223086


 32 35  0  0  0  0  0  0  0  0999 V2000
  -15.3950    2.5608  -15.8293 C   0  0  0  0  0  0  0  0  0  0  0  0
  -15.3327    3.7750  -16.4115 N   0  0  0  0  0  0  0  0  0  0  0  0
  -14.2681    4.5217  -16.1060 C   0  0  0  0  0  0  0  0  0  0  0  0
  -13.2937    4.1811  -15.2634 N   0  0  0  0  0  0  0  0  0  0  0  0
  -13.4039    2.9834  -14.6628 C   0  0  0  0  0  0  0  0  0  0  0  0
  -12.3234    2.6725  -13.8453 N   0  0  0  0  0  0  0  0  0  0  0  0
  -14.4604    2.1038  -14.9154 C   0  0  0  0  0  0  0  0  0  0  0  0
  -11.7421    3.4899  -13.7042 H   0  0  0  0  0  0  0  0  0  0  0  0
  -12.6105    2.1982  -12.9888 H   0  0  0  0  0  0  0  0  0  0  0  0
  -14.5969    0.8165  -14.2046 C   0  0  0  0  0  0  0  0  0  0  0  0
  -14.7416    0.7809  -12.9174 N   0  0  0  0  0  0  0  0  0  0  0  0
  -14.9105   -0.5260  -12.4451 O   0  0  0  0  0  0  0  0  0  0  0  0
  -14.8995   -1.3813  -13.6005 C   0  0  0  0  0  0  0  0  0  0  0  0
  -15.8572   -2.5622  -13.4032 C   0  0  0  0  0  0  0  0  0  0  0  0
  -15.3407   -3.6335  -12.5232 N   0  0  0  0  0  0  0  0  0  0  0  0
  -14.9919   -4.8776  -13.2282 C   0  0  0  0  0  0  0  0  0  0  0  0
  -16.2826   -5.6691  -13.2808 C   0  0  0  0  0  0  0  0  0  0  0  0
  -16.8668   -5.4126  -11.9073 C   0  0  0  0  0  0  0  0  0  0  0  0
  -16.3607   -4.0232  -11.5258 C   0  0  0  0  0  0  0  0  0  0  0  0
  -16.4860    1.7482  -16.1341 O   0  0  0  0  0  0  0  0  0  0  0  0
  -23.4273    0.8011  -13.8307 C   0  0  0  0  0  0  0  0  0  0  0  0
  -22.0125    1.1701  -14.0915 C   0  0  0  0  0  0  0  0  0  0  0  0
  -20.8820    0.3892  -14.2314 C   0  0  0  0  0  0  0  0  0  0  0  0
  -19.8226    1.2270  -14.6853 C   0  0  0  0  0  0  0  0  0  0  0  0
  -18.4976    1.0049  -15.1151 C   0  0  0  0  0  0  0  0  0  0  0  0
  -17.9924   -0.2395  -15.1050 F   0  0  0  0  0  0  0  0  0  0  0  0
  -17.7252    2.0671  -15.6042 C   0  0  0  0  0  0  0  0  0  0  0  0
  -18.2754    3.3541  -15.6472 C   0  0  0  0  0  0  0  0  0  0  0  0
  -19.5689    3.6136  -15.1742 C   0  0  0  0  0  0  0  0  0  0  0  0
  -20.3256    2.5277  -14.7225 C   0  0  0  0  0  0  0  0  0  0  0  0
  -21.6293    2.4751  -14.2819 N   0  0  0  0  0  0  0  0  0  0  0  0
  -22.2410    3.2766  -14.2081 H   0  0  0  0  0  0  0  0  0  0  0  0
 21 22  1  0  0  0
 22 23  2  0  0  0
 22 31  1  0  0  0
 23 24  1  0  0  0
 24 25  1  0  0  0
 24 30  2  0  0  0
 25 26  1  0  0  0
 25 27  2  0  0  0
 27 20  1  0  0  0
 27 28  1  0  0  0
 20  1  1  0  0  0
  1  2  1  0  0  0
  1  7  2  0  0  0
  2  3  2  0  0  0
  3  4  1  0  0  0
  4  5  2  0  0  0
  5  6  1  0  0  0
  5  7  1  0  0  0
  6  8  1  0  0  0
  6  9  1  0  0  0
  7 10  1  0  0  0
 10 11  2  0  0  0
 11 12  1  0  0  0
 12 13  1  0  0  0
 13 14  1  0  0  0
 14 15  1  0  0  0
 15 16  1  0  0  0
 15 19  1  0  0  0
 16 17  1  0  0  0
 17 18  1  0  0  0
 18 19  1  0  0  0
 28 29  2  0  0  0
 29 30  1  0  0  0
 30 31  1  0  0  0
 31 32  1  0  0  0
M  END
> <minimizedAffinity>
-8.70866

$$$$
