CHEMBL194150


 32 35  0  0  0  0  0  0  0  0999 V2000
  -16.1139    0.9282  -14.9722 C   0  0  0  0  0  0  0  0  0  0  0  0
  -15.3648   -0.0833  -14.3735 C   0  0  0  0  0  0  0  0  0  0  0  0
  -14.0433    0.0820  -14.6653 O   0  0  0  0  0  0  0  0  0  0  0  0
  -13.9139    1.2163  -15.3953 C   0  0  0  0  0  0  0  0  0  0  0  0
  -12.7206    1.6795  -15.7812 N   0  0  0  0  0  0  0  0  0  0  0  0
  -12.8354    2.8257  -16.4555 C   0  0  0  0  0  0  0  0  0  0  0  0
  -13.9644    3.4798  -16.7751 N   0  0  0  0  0  0  0  0  0  0  0  0
  -15.1492    2.9629  -16.3908 C   0  0  0  0  0  0  0  0  0  0  0  0
  -16.2586    3.6827  -16.7651 N   0  0  0  0  0  0  0  0  0  0  0  0
  -15.1607    1.7806  -15.6335 C   0  0  0  0  0  0  0  0  0  0  0  0
  -16.0855    4.5430  -17.2641 H   0  0  0  0  0  0  0  0  0  0  0  0
  -17.1945    3.3205  -16.6794 H   0  0  0  0  0  0  0  0  0  0  0  0
  -20.3614    1.3370  -14.5796 C   0  0  0  0  0  0  0  0  0  0  0  0
  -19.5040    2.2924  -14.0403 C   0  0  0  0  0  0  0  0  0  0  0  0
  -18.1178    2.1301  -14.1404 C   0  0  0  0  0  0  0  0  0  0  0  0
  -17.5640    1.0591  -14.8507 C   0  0  0  0  0  0  0  0  0  0  0  0
  -18.4354    0.1160  -15.4121 C   0  0  0  0  0  0  0  0  0  0  0  0
  -19.8190    0.2380  -15.2462 C   0  0  0  0  0  0  0  0  0  0  0  0
  -22.3453    0.2350  -13.8822 C   0  0  0  0  0  0  0  0  0  0  0  0
  -21.7259    1.3516  -14.5091 O   0  0  0  0  0  0  0  0  0  0  0  0
  -15.6426   -1.2153  -13.4908 C   0  0  0  0  0  0  0  0  0  0  0  0
  -15.6307   -1.0610  -12.0958 C   0  0  0  0  0  0  0  0  0  0  0  0
  -15.8974   -2.1466  -11.2544 C   0  0  0  0  0  0  0  0  0  0  0  0
  -16.1566   -3.4045  -11.7975 C   0  0  0  0  0  0  0  0  0  0  0  0
  -16.1389   -3.5721  -13.1786 C   0  0  0  0  0  0  0  0  0  0  0  0
  -15.9216   -2.4818  -14.0204 C   0  0  0  0  0  0  0  0  0  0  0  0
  -16.3419   -4.8685  -13.7326 N   0  0  0  0  0  0  0  0  0  0  0  0
  -17.0517   -5.4277  -13.2519 H   0  0  0  0  0  0  0  0  0  0  0  0
  -14.9781   -5.8394  -13.9789 S   0  0  0  0  0  0  0  0  0  0  0  0
  -15.0206   -6.8574  -12.5237 C   0  0  0  0  0  0  0  0  0  0  0  0
  -15.1582   -6.6693  -15.1497 O   0  0  0  0  0  0  0  0  0  0  0  0
  -13.8464   -4.9470  -13.8591 O   0  0  0  0  0  0  0  0  0  0  0  0
 19 20  1  0  0  0
 20 13  1  0  0  0
 13 14  1  0  0  0
 13 18  2  0  0  0
 14 15  2  0  0  0
 15 16  1  0  0  0
 16  1  1  0  0  0
 16 17  2  0  0  0
  1  2  2  0  0  0
  1 10  1  0  0  0
  2 21  1  0  0  0
  2  3  1  0  0  0
 21 22  1  0  0  0
 21 26  2  0  0  0
 22 23  2  0  0  0
 23 24  1  0  0  0
 24 25  2  0  0  0
 25 27  1  0  0  0
 25 26  1  0  0  0
 27 29  1  0  0  0
 27 28  1  0  0  0
 29 30  1  0  0  0
 29 31  2  0  0  0
 29 32  2  0  0  0
  3  4  1  0  0  0
  4  5  1  0  0  0
  4 10  2  0  0  0
  5  6  2  0  0  0
  6  7  1  0  0  0
  7  8  2  0  0  0
  8  9  1  0  0  0
  8 10  1  0  0  0
  9 11  1  0  0  0
  9 12  1  0  0  0
 17 18  1  0  0  0
M  END
> <minimizedAffinity>
-7.71314

$$$$
