CHEMBL3660291


 40 43  0  0  0  0  0  0  0  0999 V2000
  -28.3483   -8.6377   -5.7622 C   0  0  0  0  0  0  0  0  0  0  0  0
  -28.4303   -8.2373   -7.1004 C   0  0  0  0  0  0  0  0  0  0  0  0
  -28.9345   -6.9816   -7.4359 C   0  0  0  0  0  0  0  0  0  0  0  0
  -29.4190   -6.1358   -6.4374 C   0  0  0  0  0  0  0  0  0  0  0  0
  -29.3350   -6.5310   -5.0985 C   0  0  0  0  0  0  0  0  0  0  0  0
  -28.8230   -7.7909   -4.7592 C   0  0  0  0  0  0  0  0  0  0  0  0
  -25.8541  -11.0629   -4.7449 N   0  0  0  0  0  0  0  0  0  0  0  0
  -26.3968   -9.8102   -4.9654 C   0  0  0  0  0  0  0  0  0  0  0  0
  -25.8380   -8.7466   -4.7273 O   0  0  0  0  0  0  0  0  0  0  0  0
  -27.7126   -9.8607   -5.4235 N   0  0  0  0  0  0  0  0  0  0  0  0
  -26.4786  -11.8521   -4.8128 H   0  0  0  0  0  0  0  0  0  0  0  0
  -28.2883  -10.5384   -4.9466 H   0  0  0  0  0  0  0  0  0  0  0  0
  -23.0433  -12.3470   -0.8662 C   0  0  0  0  0  0  0  0  0  0  0  0
  -23.1634  -11.9175   -2.2995 C   0  0  0  0  0  0  0  0  0  0  0  0
  -22.0060  -11.7045   -3.0540 C   0  0  0  0  0  0  0  0  0  0  0  0
  -22.1080  -11.3389   -4.3894 C   0  0  0  0  0  0  0  0  0  0  0  0
  -23.3587  -11.1661   -4.9760 C   0  0  0  0  0  0  0  0  0  0  0  0
  -23.3605  -10.9557   -6.2969 F   0  0  0  0  0  0  0  0  0  0  0  0
  -24.5454  -11.3078   -4.2344 C   0  0  0  0  0  0  0  0  0  0  0  0
  -24.4276  -11.7186   -2.8946 C   0  0  0  0  0  0  0  0  0  0  0  0
  -29.9369   -4.8823   -6.6778 O   0  0  0  0  0  0  0  0  0  0  0  0
  -29.0843   -3.8135   -6.8407 C   0  0  0  0  0  0  0  0  0  0  0  0
  -28.5373   -3.0905   -5.7823 C   0  0  0  0  0  0  0  0  0  0  0  0
  -27.7278   -2.0104   -6.0815 C   0  0  0  0  0  0  0  0  0  0  0  0
  -27.3873   -1.6466   -7.3362 N   0  0  0  0  0  0  0  0  0  0  0  0
  -27.8773   -2.4068   -8.3467 C   0  0  0  0  0  0  0  0  0  0  0  0
  -28.7226   -3.4896   -8.1413 C   0  0  0  0  0  0  0  0  0  0  0  0
  -27.4475   -1.9846   -9.6749 C   0  0  0  0  0  0  0  0  0  0  0  0
  -26.2025   -1.9874  -10.2819 C   0  0  0  0  0  0  0  0  0  0  0  0
  -26.3384   -1.4922  -11.6127 C   0  0  0  0  0  0  0  0  0  0  0  0
  -27.6755   -1.1739  -11.7676 C   0  0  0  0  0  0  0  0  0  0  0  0
  -28.3297   -1.4816  -10.6060 N   0  0  0  0  0  0  0  0  0  0  0  0
  -29.3249   -1.3878  -10.4284 H   0  0  0  0  0  0  0  0  0  0  0  0
  -25.3119   -1.3859  -12.6369 C   0  0  0  0  0  0  0  0  0  0  0  0
  -25.4064   -1.8887  -13.7518 O   0  0  0  0  0  0  0  0  0  0  0  0
  -24.2076   -0.7243  -12.1840 O   0  0  0  0  0  0  0  0  0  0  0  0
  -23.7574    0.3678  -13.0021 C   0  0  0  0  0  0  0  0  0  0  0  0
  -22.2379    0.4783  -13.0632 C   0  0  0  0  0  0  0  0  0  0  0  0
  -21.7601    0.1027  -14.3527 O   0  0  0  0  0  0  0  0  0  0  0  0
  -22.0019   -0.8309  -14.4783 H   0  0  0  0  0  0  0  0  0  0  0  0
 13 14  1  0  0  0
 14 15  1  0  0  0
 14 20  2  0  0  0
 15 16  2  0  0  0
 16 17  1  0  0  0
 17 18  1  0  0  0
 17 19  2  0  0  0
 19  7  1  0  0  0
 19 20  1  0  0  0
  7  8  1  0  0  0
  7 11  1  0  0  0
  8  9  2  0  0  0
  8 10  1  0  0  0
 10  1  1  0  0  0
 10 12  1  0  0  0
  1  2  1  0  0  0
  1  6  2  0  0  0
  2  3  2  0  0  0
  3  4  1  0  0  0
  4 21  1  0  0  0
  4  5  2  0  0  0
 21 22  1  0  0  0
 22 23  1  0  0  0
 22 27  2  0  0  0
 23 24  2  0  0  0
 24 25  1  0  0  0
 25 26  2  0  0  0
 26 28  1  0  0  0
 26 27  1  0  0  0
 28 29  2  0  0  0
 28 32  1  0  0  0
 29 30  1  0  0  0
 30 34  1  0  0  0
 30 31  2  0  0  0
 34 35  2  0  0  0
 34 36  1  0  0  0
 36 37  1  0  0  0
 37 38  1  0  0  0
 38 39  1  0  0  0
 39 40  1  0  0  0
 31 32  1  0  0  0
 32 33  1  0  0  0
  5  6  1  0  0  0
M  END
> <minimizedAffinity>
-8.66281

$$$$
