CHEMBL4534317


 32 36  0  0  0  0  0  0  0  0999 V2000
  -16.1034    1.7011  -15.0222 C   0  0  0  0  0  0  0  0  0  0  0  0
  -15.0716    2.2936  -15.7191 C   0  0  0  0  0  0  0  0  0  0  0  0
  -15.5994    3.3582  -16.4066 N   0  0  0  0  0  0  0  0  0  0  0  0
  -16.9360    3.4408  -16.2409 N   0  0  0  0  0  0  0  0  0  0  0  0
  -17.2642    2.4346  -15.4167 C   0  0  0  0  0  0  0  0  0  0  0  0
  -18.6669    2.2146  -15.0511 C   0  0  0  0  0  0  0  0  0  0  0  0
  -19.2573    0.9471  -15.1821 C   0  0  0  0  0  0  0  0  0  0  0  0
  -20.5853    0.7370  -14.8132 C   0  0  0  0  0  0  0  0  0  0  0  0
  -21.3365    1.8030  -14.3424 C   0  0  0  0  0  0  0  0  0  0  0  0
  -22.6171    1.6032  -14.0002 F   0  0  0  0  0  0  0  0  0  0  0  0
  -20.7860    3.0732  -14.2254 C   0  0  0  0  0  0  0  0  0  0  0  0
  -19.4504    3.2799  -14.5795 C   0  0  0  0  0  0  0  0  0  0  0  0
  -14.8966    4.2982  -17.2038 C   0  0  0  0  0  0  0  0  0  0  0  0
  -15.3467    4.6220  -18.4909 C   0  0  0  0  0  0  0  0  0  0  0  0
  -14.6583    5.5616  -19.2552 C   0  0  0  0  0  0  0  0  0  0  0  0
  -13.5104    6.1691  -18.7488 C   0  0  0  0  0  0  0  0  0  0  0  0
  -13.0493    5.8392  -17.4741 C   0  0  0  0  0  0  0  0  0  0  0  0
  -13.7409    4.9099  -16.6972 C   0  0  0  0  0  0  0  0  0  0  0  0
  -16.3680    0.7843  -12.9029 O   0  0  0  0  0  0  0  0  0  0  0  0
  -16.0013    0.6173  -14.0554 C   0  0  0  0  0  0  0  0  0  0  0  0
  -15.4352   -0.5366  -14.5479 N   0  0  0  0  0  0  0  0  0  0  0  0
  -14.9482   -0.5321  -15.4282 H   0  0  0  0  0  0  0  0  0  0  0  0
  -15.2602   -1.6838  -13.8184 C   0  0  0  0  0  0  0  0  0  0  0  0
  -16.2435   -2.5259  -13.6175 N   0  0  0  0  0  0  0  0  0  0  0  0
  -15.7753   -3.6097  -12.8916 C   0  0  0  0  0  0  0  0  0  0  0  0
  -16.5090   -4.7681  -12.5623 C   0  0  0  0  0  0  0  0  0  0  0  0
  -15.9017   -5.7774  -11.8081 C   0  0  0  0  0  0  0  0  0  0  0  0
  -14.5910   -5.6310  -11.3750 C   0  0  0  0  0  0  0  0  0  0  0  0
  -14.0336   -6.6025  -10.6405 F   0  0  0  0  0  0  0  0  0  0  0  0
  -13.8365   -4.5045  -11.6845 C   0  0  0  0  0  0  0  0  0  0  0  0
  -14.4493   -3.5115  -12.4599 C   0  0  0  0  0  0  0  0  0  0  0  0
  -13.7878   -2.0429  -13.0418 S   0  0  0  0  0  0  0  0  0  0  0  0
 19 20  2  0  0  0
 20 21  1  0  0  0
 20  1  1  0  0  0
 21 23  1  0  0  0
 21 22  1  0  0  0
 23 24  2  0  0  0
 23 32  1  0  0  0
 24 25  1  0  0  0
 25 26  1  0  0  0
 25 31  2  0  0  0
 26 27  2  0  0  0
 27 28  1  0  0  0
 28 29  1  0  0  0
 28 30  2  0  0  0
 30 31  1  0  0  0
 31 32  1  0  0  0
  1  2  2  0  0  0
  1  5  1  0  0  0
  2  3  1  0  0  0
  3 13  1  0  0  0
  3  4  1  0  0  0
 13 14  1  0  0  0
 13 18  2  0  0  0
 14 15  2  0  0  0
 15 16  1  0  0  0
 16 17  2  0  0  0
 17 18  1  0  0  0
  4  5  2  0  0  0
  5  6  1  0  0  0
  6  7  1  0  0  0
  6 12  2  0  0  0
  7  8  2  0  0  0
  8  9  1  0  0  0
  9 10  1  0  0  0
  9 11  2  0  0  0
 11 12  1  0  0  0
M  END
> <minimizedAffinity>
-9.98856

$$$$
