CHEMBL205647


 35 39  0  0  0  0  0  0  0  0999 V2000
  -28.1744   -1.8472   -6.9582 C   0  0  0  0  0  0  0  0  0  0  0  0
  -27.5339   -0.9855   -6.0461 C   0  0  0  0  0  0  0  0  0  0  0  0
  -27.7701   -1.0654   -4.6820 C   0  0  0  0  0  0  0  0  0  0  0  0
  -28.6494   -2.0303   -4.2431 C   0  0  0  0  0  0  0  0  0  0  0  0
  -29.2723   -2.8995   -5.0684 N   0  0  0  0  0  0  0  0  0  0  0  0
  -29.0536   -2.8139   -6.4137 C   0  0  0  0  0  0  0  0  0  0  0  0
  -26.7837   -1.8883  -10.2065 C   0  0  0  0  0  0  0  0  0  0  0  0
  -27.7938   -1.0835  -10.4720 N   0  0  0  0  0  0  0  0  0  0  0  0
  -28.5375   -0.9661   -9.3114 N   0  0  0  0  0  0  0  0  0  0  0  0
  -27.9126   -1.6695   -8.3908 C   0  0  0  0  0  0  0  0  0  0  0  0
  -26.7920   -2.2914   -8.8968 O   0  0  0  0  0  0  0  0  0  0  0  0
  -25.7748   -2.2482  -11.0249 N   0  0  0  0  0  0  0  0  0  0  0  0
  -25.0594   -2.8138  -10.5808 H   0  0  0  0  0  0  0  0  0  0  0  0
  -23.6656   -0.4397  -13.5159 C   0  0  0  0  0  0  0  0  0  0  0  0
  -24.3862   -0.6515  -14.6959 C   0  0  0  0  0  0  0  0  0  0  0  0
  -25.5771   -1.3716  -14.6664 C   0  0  0  0  0  0  0  0  0  0  0  0
  -26.0570   -1.8950  -13.4616 C   0  0  0  0  0  0  0  0  0  0  0  0
  -25.3705   -1.7004  -12.2588 C   0  0  0  0  0  0  0  0  0  0  0  0
  -24.1674   -0.9698  -12.3091 C   0  0  0  0  0  0  0  0  0  0  0  0
  -21.6856    0.2702  -12.3503 F   0  0  0  0  0  0  0  0  0  0  0  0
  -22.3705    0.3352  -13.5262 C   0  0  0  0  0  0  0  0  0  0  0  0
  -22.5596    1.6611  -13.7733 F   0  0  0  0  0  0  0  0  0  0  0  0
  -21.5078   -0.1038  -14.4840 F   0  0  0  0  0  0  0  0  0  0  0  0
  -29.7562   -3.8920   -7.2330 C   0  0  0  0  0  0  0  0  0  0  0  0
  -30.0195   -5.2161   -6.4667 C   0  0  0  0  0  0  0  0  0  0  0  0
  -29.7388   -6.4635   -7.3007 C   0  0  0  0  0  0  0  0  0  0  0  0
  -28.4785   -6.5360   -7.9224 C   0  0  0  0  0  0  0  0  0  0  0  0
  -28.0980   -7.6658   -8.6363 C   0  0  0  0  0  0  0  0  0  0  0  0
  -28.9641   -8.7508   -8.7202 C   0  0  0  0  0  0  0  0  0  0  0  0
  -30.2250   -8.7208   -8.1587 C   0  0  0  0  0  0  0  0  0  0  0  0
  -30.9822   -9.8181   -8.3241 N   0  0  0  0  0  0  0  0  0  0  0  0
  -32.2382   -9.8049   -7.8449 C   0  0  0  0  0  0  0  0  0  0  0  0
  -32.7922   -8.7155   -7.2079 C   0  0  0  0  0  0  0  0  0  0  0  0
  -31.9903   -7.5883   -7.0068 C   0  0  0  0  0  0  0  0  0  0  0  0
  -30.6528   -7.5572   -7.4636 C   0  0  0  0  0  0  0  0  0  0  0  0
 20 21  1  0  0  0
 21 22  1  0  0  0
 21 23  1  0  0  0
 21 14  1  0  0  0
 14 15  1  0  0  0
 14 19  2  0  0  0
 15 16  2  0  0  0
 16 17  1  0  0  0
 17 18  2  0  0  0
 18 12  1  0  0  0
 18 19  1  0  0  0
 12  7  1  0  0  0
 12 13  1  0  0  0
  7  8  2  0  0  0
  7 11  1  0  0  0
  8  9  1  0  0  0
  9 10  2  0  0  0
 10  1  1  0  0  0
 10 11  1  0  0  0
  1  2  1  0  0  0
  1  6  2  0  0  0
  2  3  2  0  0  0
  3  4  1  0  0  0
  4  5  2  0  0  0
  5  6  1  0  0  0
  6 24  1  0  0  0
 24 25  1  0  0  0
 25 26  1  0  0  0
 26 27  1  0  0  0
 26 35  2  0  0  0
 27 28  2  0  0  0
 28 29  1  0  0  0
 29 30  2  0  0  0
 30 31  1  0  0  0
 30 35  1  0  0  0
 31 32  2  0  0  0
 32 33  1  0  0  0
 33 34  2  0  0  0
 34 35  1  0  0  0
M  END
> <minimizedAffinity>
-11.10093

$$$$
