CHEMBL199455


 33 36  0  0  0  0  0  0  0  0999 V2000
  -28.1112   -1.0927   -4.7741 C   0  0  0  0  0  0  0  0  0  0  0  0
  -28.2607    0.1392   -4.2582 N   0  0  0  0  0  0  0  0  0  0  0  0
  -28.3350    1.1470   -5.1339 C   0  0  0  0  0  0  0  0  0  0  0  0
  -28.2726    1.0451   -6.4692 N   0  0  0  0  0  0  0  0  0  0  0  0
  -28.1289   -0.1884   -6.9780 C   0  0  0  0  0  0  0  0  0  0  0  0
  -28.0756   -0.3926   -8.3605 C   0  0  0  0  0  0  0  0  0  0  0  0
  -27.9923   -1.6783   -8.9696 C   0  0  0  0  0  0  0  0  0  0  0  0
  -27.9348   -2.8016   -8.1534 C   0  0  0  0  0  0  0  0  0  0  0  0
  -27.9381   -2.5858   -6.7676 C   0  0  0  0  0  0  0  0  0  0  0  0
  -28.0441   -1.3124   -6.1653 C   0  0  0  0  0  0  0  0  0  0  0  0
  -27.9681   -2.2049   -3.8981 N   0  0  0  0  0  0  0  0  0  0  0  0
  -27.0084   -2.5553   -3.9380 H   0  0  0  0  0  0  0  0  0  0  0  0
  -30.1610   -5.8699   -4.1992 C   0  0  0  0  0  0  0  0  0  0  0  0
  -28.8219   -5.8390   -4.2538 C   0  0  0  0  0  0  0  0  0  0  0  0
  -28.0621   -4.6038   -4.0481 C   0  0  0  0  0  0  0  0  0  0  0  0
  -26.8328   -4.6186   -4.0216 O   0  0  0  0  0  0  0  0  0  0  0  0
  -28.8041   -3.3135   -3.9196 C   0  0  0  0  0  0  0  0  0  0  0  0
  -30.1362   -3.3468   -3.8287 C   0  0  0  0  0  0  0  0  0  0  0  0
  -30.9029   -4.6021   -3.9115 C   0  0  0  0  0  0  0  0  0  0  0  0
  -32.1191   -4.5934   -3.7571 O   0  0  0  0  0  0  0  0  0  0  0  0
  -31.3234   -7.3259   -5.7123 C   0  0  0  0  0  0  0  0  0  0  0  0
  -30.9395   -6.9954   -4.3835 O   0  0  0  0  0  0  0  0  0  0  0  0
  -27.9474   -4.1438   -8.3539 O   0  0  0  0  0  0  0  0  0  0  0  0
  -28.7264   -5.1164   -7.6956 C   0  0  0  0  0  0  0  0  0  0  0  0
  -27.9866   -1.5674  -10.3358 O   0  0  0  0  0  0  0  0  0  0  0  0
  -26.7742   -1.8654  -11.0022 C   0  0  0  0  0  0  0  0  0  0  0  0
  -26.8693   -1.7275  -12.5063 C   0  0  0  0  0  0  0  0  0  0  0  0
  -25.5296   -1.5256  -13.2009 C   0  0  0  0  0  0  0  0  0  0  0  0
  -24.4971   -1.1569  -12.2172 N   0  0  0  0  0  0  0  0  0  0  0  0
  -24.3726    0.3041  -12.1014 C   0  0  0  0  0  0  0  0  0  0  0  0
  -23.3917    0.6990  -13.1863 C   0  0  0  0  0  0  0  0  0  0  0  0
  -22.4372   -0.4740  -13.2746 C   0  0  0  0  0  0  0  0  0  0  0  0
  -23.1478   -1.6238  -12.5765 C   0  0  0  0  0  0  0  0  0  0  0  0
 21 22  1  0  0  0
 22 13  1  0  0  0
 13 14  2  0  0  0
 13 19  1  0  0  0
 14 15  1  0  0  0
 15 16  2  0  0  0
 15 17  1  0  0  0
 17 11  1  0  0  0
 17 18  2  0  0  0
 11  1  1  0  0  0
 11 12  1  0  0  0
  1  2  1  0  0  0
  1 10  2  0  0  0
  2  3  2  0  0  0
  3  4  1  0  0  0
  4  5  2  0  0  0
  5  6  1  0  0  0
  5 10  1  0  0  0
  6  7  2  0  0  0
  7 25  1  0  0  0
  7  8  1  0  0  0
 25 26  1  0  0  0
 26 27  1  0  0  0
 27 28  1  0  0  0
 28 29  1  0  0  0
 29 30  1  0  0  0
 29 33  1  0  0  0
 30 31  1  0  0  0
 31 32  1  0  0  0
 32 33  1  0  0  0
  8 23  1  0  0  0
  8  9  2  0  0  0
 23 24  1  0  0  0
  9 10  1  0  0  0
 18 19  1  0  0  0
 19 20  2  0  0  0
M  END
> <minimizedAffinity>
-8.14029

$$$$
