CHEMBL3963494


 35 39  0  0  0  0  0  0  0  0999 V2000
  -28.2647   -7.8795   -5.4969 C   0  0  0  0  0  0  0  0  0  0  0  0
  -28.6118   -6.8182   -6.2749 N   0  0  0  0  0  0  0  0  0  0  0  0
  -29.3995   -5.8674   -5.7381 C   0  0  0  0  0  0  0  0  0  0  0  0
  -29.8338   -5.9073   -4.4718 N   0  0  0  0  0  0  0  0  0  0  0  0
  -29.4983   -6.9744   -3.7290 C   0  0  0  0  0  0  0  0  0  0  0  0
  -28.7212   -8.0095   -4.1926 C   0  0  0  0  0  0  0  0  0  0  0  0
  -28.4134   -9.3544   -3.1752 Cl  0  0  0  0  0  0  0  0  0  0  0  0
  -29.8659   -4.8721   -6.6038 N   0  0  0  0  0  0  0  0  0  0  0  0
  -30.8740   -4.8435   -6.5155 H   0  0  0  0  0  0  0  0  0  0  0  0
  -29.1737   -3.7794   -6.9945 C   0  0  0  0  0  0  0  0  0  0  0  0
  -28.3152   -3.5996   -8.0984 C   0  0  0  0  0  0  0  0  0  0  0  0
  -27.7195   -2.4046   -8.0878 N   0  0  0  0  0  0  0  0  0  0  0  0
  -28.1707   -1.8343   -6.9525 N   0  0  0  0  0  0  0  0  0  0  0  0
  -29.1173   -2.5930   -6.3085 C   0  0  0  0  0  0  0  0  0  0  0  0
  -27.5865   -0.6054   -6.4967 C   0  0  0  0  0  0  0  0  0  0  0  0
  -27.6108   -0.4671   -4.9565 C   0  0  0  0  0  0  0  0  0  0  0  0
  -28.0030    0.9511   -5.1234 N   0  0  0  0  0  0  0  0  0  0  0  0
  -28.5417    0.6029   -6.4595 C   0  0  0  0  0  0  0  0  0  0  0  0
  -27.2010    1.5830   -5.1667 H   0  0  0  0  0  0  0  0  0  0  0  0
  -27.4552   -8.9805   -6.1474 C   0  0  0  0  0  0  0  0  0  0  0  0
  -28.2837  -10.1633   -6.6719 C   0  0  0  0  0  0  0  0  0  0  0  0
  -29.5029  -10.5035   -8.9256 C   0  0  0  0  0  0  0  0  0  0  0  0
  -29.3530  -10.6554  -10.3232 C   0  0  0  0  0  0  0  0  0  0  0  0
  -28.1647  -10.3484  -10.9847 C   0  0  0  0  0  0  0  0  0  0  0  0
  -27.0818   -9.8745  -10.2615 C   0  0  0  0  0  0  0  0  0  0  0  0
  -27.1677   -9.7861   -8.8750 C   0  0  0  0  0  0  0  0  0  0  0  0
  -28.3516  -10.1331   -8.1891 C   0  0  0  0  0  0  0  0  0  0  0  0
  -30.9055  -10.6973   -8.3297 C   0  0  0  0  0  0  0  0  0  0  0  0
  -31.6331  -12.0251   -8.5499 C   0  0  0  0  0  0  0  0  0  0  0  0
  -31.0002  -11.7693   -7.2265 C   0  0  0  0  0  0  0  0  0  0  0  0
  -30.9857   -8.3286   -7.7983 N   0  0  0  0  0  0  0  0  0  0  0  0
  -31.7097   -9.4496   -8.0787 C   0  0  0  0  0  0  0  0  0  0  0  0
  -32.9307   -9.4424   -8.1414 O   0  0  0  0  0  0  0  0  0  0  0  0
  -31.4916   -7.4660   -7.6555 H   0  0  0  0  0  0  0  0  0  0  0  0
  -29.9767   -8.3260   -7.7702 H   0  0  0  0  0  0  0  0  0  0  0  0
 31 32  1  0  0  0
 31 34  1  0  0  0
 31 35  1  0  0  0
 32 33  2  0  0  0
 32 28  1  0  0  0
 28 22  1  0  0  0
 28 29  1  0  0  0
 28 30  1  0  0  0
 22 23  1  0  0  0
 22 27  2  0  0  0
 23 24  2  0  0  0
 24 25  1  0  0  0
 25 26  2  0  0  0
 26 27  1  0  0  0
 27 21  1  0  0  0
 21 20  1  0  0  0
 20  1  1  0  0  0
  1  2  1  0  0  0
  1  6  2  0  0  0
  2  3  2  0  0  0
  3  8  1  0  0  0
  3  4  1  0  0  0
  8 10  1  0  0  0
  8  9  1  0  0  0
 10 11  1  0  0  0
 10 14  2  0  0  0
 11 12  2  0  0  0
 12 13  1  0  0  0
 13 15  1  0  0  0
 13 14  1  0  0  0
 15 16  1  0  0  0
 15 18  1  0  0  0
 16 17  1  0  0  0
 17 18  1  0  0  0
 17 19  1  0  0  0
  4  5  2  0  0  0
  5  6  1  0  0  0
  6  7  1  0  0  0
 29 30  1  0  0  0
M  END
> <minimizedAffinity>
-8.02146

$$$$
