CHEMBL3321899


 29 33  0  0  0  0  0  0  0  0999 V2000
  -23.4193    0.1406  -13.3806 C   0  0  0  0  0  0  0  0  0  0  0  0
  -24.4947   -0.2448  -14.0432 N   0  0  0  0  0  0  0  0  0  0  0  0
  -25.2651   -0.9351  -13.1460 C   0  0  0  0  0  0  0  0  0  0  0  0
  -26.4908   -1.5718  -13.3398 C   0  0  0  0  0  0  0  0  0  0  0  0
  -27.0752   -2.2205  -12.2476 C   0  0  0  0  0  0  0  0  0  0  0  0
  -26.4910   -2.2159  -10.9656 C   0  0  0  0  0  0  0  0  0  0  0  0
  -25.2353   -1.6120  -10.7846 C   0  0  0  0  0  0  0  0  0  0  0  0
  -24.6666   -0.9732  -11.8940 C   0  0  0  0  0  0  0  0  0  0  0  0
  -23.4952   -0.2845  -12.0717 N   0  0  0  0  0  0  0  0  0  0  0  0
  -22.7896   -0.1122  -11.3700 H   0  0  0  0  0  0  0  0  0  0  0  0
  -23.2298    2.9969  -13.2998 F   0  0  0  0  0  0  0  0  0  0  0  0
  -22.2389    2.2969  -13.8762 C   0  0  0  0  0  0  0  0  0  0  0  0
  -21.1575    3.0008  -14.4029 C   0  0  0  0  0  0  0  0  0  0  0  0
  -20.1108    2.3095  -15.0090 C   0  0  0  0  0  0  0  0  0  0  0  0
  -20.1519    0.9175  -15.0857 C   0  0  0  0  0  0  0  0  0  0  0  0
  -21.2386    0.2185  -14.5526 C   0  0  0  0  0  0  0  0  0  0  0  0
  -22.2998    0.9004  -13.9387 C   0  0  0  0  0  0  0  0  0  0  0  0
  -27.0984   -2.9241   -9.8992 N   0  0  0  0  0  0  0  0  0  0  0  0
  -26.6724   -3.8229   -9.7051 H   0  0  0  0  0  0  0  0  0  0  0  0
  -27.5468   -2.3282   -8.6946 C   0  0  0  0  0  0  0  0  0  0  0  0
  -27.2396   -1.0330   -8.4842 N   0  0  0  0  0  0  0  0  0  0  0  0
  -27.7601   -0.4539   -7.4037 C   0  0  0  0  0  0  0  0  0  0  0  0
  -28.5634   -1.0385   -6.5122 N   0  0  0  0  0  0  0  0  0  0  0  0
  -28.8424   -2.3295   -6.7150 C   0  0  0  0  0  0  0  0  0  0  0  0
  -29.7090   -2.9554   -5.8292 C   0  0  0  0  0  0  0  0  0  0  0  0
  -30.0581   -4.3010   -5.9640 C   0  0  0  0  0  0  0  0  0  0  0  0
  -29.5255   -5.0495   -7.0054 C   0  0  0  0  0  0  0  0  0  0  0  0
  -28.6686   -4.4395   -7.9213 C   0  0  0  0  0  0  0  0  0  0  0  0
  -28.3238   -3.0681   -7.7883 C   0  0  0  0  0  0  0  0  0  0  0  0
 11 12  1  0  0  0
 12 13  1  0  0  0
 12 17  2  0  0  0
 13 14  2  0  0  0
 14 15  1  0  0  0
 15 16  2  0  0  0
 16 17  1  0  0  0
 17  1  1  0  0  0
  1  2  2  0  0  0
  1  9  1  0  0  0
  2  3  1  0  0  0
  3  4  1  0  0  0
  3  8  2  0  0  0
  4  5  2  0  0  0
  5  6  1  0  0  0
  6 18  1  0  0  0
  6  7  2  0  0  0
 18 20  1  0  0  0
 18 19  1  0  0  0
 20 21  1  0  0  0
 20 29  2  0  0  0
 21 22  2  0  0  0
 22 23  1  0  0  0
 23 24  2  0  0  0
 24 25  1  0  0  0
 24 29  1  0  0  0
 25 26  2  0  0  0
 26 27  1  0  0  0
 27 28  2  0  0  0
 28 29  1  0  0  0
  7  8  1  0  0  0
  8  9  1  0  0  0
  9 10  1  0  0  0
M  END
> <minimizedAffinity>
-10.62585

$$$$
