CHEMBL3671505


 31 33  0  0  0  0  0  0  0  0999 V2000
  -28.4428   -5.5386   -7.2481 C   0  0  0  0  0  0  0  0  0  0  0  0
  -28.2343   -4.5016   -8.1629 C   0  0  0  0  0  0  0  0  0  0  0  0
  -28.1773   -3.1526   -7.7633 C   0  0  0  0  0  0  0  0  0  0  0  0
  -27.9660   -2.0787   -8.6441 C   0  0  0  0  0  0  0  0  0  0  0  0
  -27.9045   -0.8080   -8.2111 N   0  0  0  0  0  0  0  0  0  0  0  0
  -28.0942   -0.6172   -6.9014 C   0  0  0  0  0  0  0  0  0  0  0  0
  -28.2960   -1.5678   -5.9784 N   0  0  0  0  0  0  0  0  0  0  0  0
  -28.3232   -2.8324   -6.4126 C   0  0  0  0  0  0  0  0  0  0  0  0
  -28.4853   -3.8744   -5.5025 C   0  0  0  0  0  0  0  0  0  0  0  0
  -28.5002   -5.2289   -5.8832 C   0  0  0  0  0  0  0  0  0  0  0  0
  -29.8792   -7.4139   -7.8320 C   0  0  0  0  0  0  0  0  0  0  0  0
  -30.9265   -6.8821   -7.4828 O   0  0  0  0  0  0  0  0  0  0  0  0
  -28.6237   -6.8332   -7.7842 N   0  0  0  0  0  0  0  0  0  0  0  0
  -27.8392   -7.4576   -7.8517 H   0  0  0  0  0  0  0  0  0  0  0  0
  -28.9278   -9.2029   -9.1993 C   0  0  0  0  0  0  0  0  0  0  0  0
  -29.8390   -8.8274   -8.2921 C   0  0  0  0  0  0  0  0  0  0  0  0
  -27.8062   -2.3477  -10.0225 N   0  0  0  0  0  0  0  0  0  0  0  0
  -28.6822   -2.6333  -10.4571 H   0  0  0  0  0  0  0  0  0  0  0  0
  -26.8794   -1.8059  -10.9287 C   0  0  0  0  0  0  0  0  0  0  0  0
  -25.5935   -1.4161  -10.5305 C   0  0  0  0  0  0  0  0  0  0  0  0
  -24.6374   -1.0376  -11.4758 C   0  0  0  0  0  0  0  0  0  0  0  0
  -24.9566   -1.0394  -12.8299 C   0  0  0  0  0  0  0  0  0  0  0  0
  -23.6265   -0.6245  -14.1075 Br  0  0  0  0  0  0  0  0  0  0  0  0
  -26.2370   -1.3811  -13.2500 C   0  0  0  0  0  0  0  0  0  0  0  0
  -27.1776   -1.7673  -12.2987 C   0  0  0  0  0  0  0  0  0  0  0  0
  -28.4028   -2.1292  -12.7122 F   0  0  0  0  0  0  0  0  0  0  0  0
  -28.6812   -6.0815   -4.8213 O   0  0  0  0  0  0  0  0  0  0  0  0
  -29.6073   -5.6645   -3.8299 C   0  0  0  0  0  0  0  0  0  0  0  0
  -30.9707   -6.3155   -4.0105 C   0  0  0  0  0  0  0  0  0  0  0  0
  -31.8991   -5.5036   -3.2872 O   0  0  0  0  0  0  0  0  0  0  0  0
  -31.5842   -4.1228   -3.3551 C   0  0  0  0  0  0  0  0  0  0  0  0
 15 16  2  0  0  0
 16 11  1  0  0  0
 11 12  2  0  0  0
 11 13  1  0  0  0
 13  1  1  0  0  0
 13 14  1  0  0  0
  1  2  1  0  0  0
  1 10  2  0  0  0
  2  3  2  0  0  0
  3  4  1  0  0  0
  3  8  1  0  0  0
  4 17  1  0  0  0
  4  5  2  0  0  0
 17 19  1  0  0  0
 17 18  1  0  0  0
 19 20  1  0  0  0
 19 25  2  0  0  0
 20 21  2  0  0  0
 21 22  1  0  0  0
 22 23  1  0  0  0
 22 24  2  0  0  0
 24 25  1  0  0  0
 25 26  1  0  0  0
  5  6  1  0  0  0
  6  7  2  0  0  0
  7  8  1  0  0  0
  8  9  2  0  0  0
  9 10  1  0  0  0
 10 27  1  0  0  0
 27 28  1  0  0  0
 28 29  1  0  0  0
 29 30  1  0  0  0
 30 31  1  0  0  0
M  END
> <minimizedAffinity>
-8.39654

$$$$
