CHEMBL1076437


 49 54  0  0  0  0  0  0  0  0999 V2000
  -28.8203   -3.5948   -7.6306 C   0  0  0  0  0  0  0  0  0  0  0  0
  -29.8464   -3.0153   -6.8918 C   0  0  0  0  0  0  0  0  0  0  0  0
  -30.1582   -3.4865   -5.6188 C   0  0  0  0  0  0  0  0  0  0  0  0
  -29.4959   -4.5984   -5.0892 C   0  0  0  0  0  0  0  0  0  0  0  0
  -29.7791   -4.9657   -3.6529 C   0  0  0  0  0  0  0  0  0  0  0  0
  -28.5589   -5.2952   -5.8908 C   0  0  0  0  0  0  0  0  0  0  0  0
  -28.1781   -4.7214   -7.1087 C   0  0  0  0  0  0  0  0  0  0  0  0
  -27.4776   -2.0738   -9.0630 C   0  0  0  0  0  0  0  0  0  0  0  0
  -26.9303   -1.4193   -8.1813 O   0  0  0  0  0  0  0  0  0  0  0  0
  -28.3750   -3.1072   -8.8844 N   0  0  0  0  0  0  0  0  0  0  0  0
  -28.6478   -3.6436   -9.7004 H   0  0  0  0  0  0  0  0  0  0  0  0
  -25.5134   -0.9754  -12.1527 C   0  0  0  0  0  0  0  0  0  0  0  0
  -25.8586   -1.1772  -10.8058 C   0  0  0  0  0  0  0  0  0  0  0  0
  -27.0804   -1.7770  -10.4622 C   0  0  0  0  0  0  0  0  0  0  0  0
  -27.9774   -2.1762  -11.4596 C   0  0  0  0  0  0  0  0  0  0  0  0
  -27.6680   -1.9819  -12.8021 C   0  0  0  0  0  0  0  0  0  0  0  0
  -26.4336   -1.4019  -13.1253 C   0  0  0  0  0  0  0  0  0  0  0  0
  -22.2059    0.9219  -14.1039 N   0  0  0  0  0  0  0  0  0  0  0  0
  -23.3693    1.6505  -13.5454 C   0  0  0  0  0  0  0  0  0  0  0  0
  -23.9970    1.0028  -12.2920 C   0  0  0  0  0  0  0  0  0  0  0  0
  -24.3109   -0.4184  -12.5368 N   0  0  0  0  0  0  0  0  0  0  0  0
  -23.2364   -1.2205  -13.1384 C   0  0  0  0  0  0  0  0  0  0  0  0
  -22.6420   -0.4773  -14.3650 C   0  0  0  0  0  0  0  0  0  0  0  0
  -19.7403    1.3920  -13.8815 C   0  0  0  0  0  0  0  0  0  0  0  0
  -21.0305    0.9262  -13.2183 C   0  0  0  0  0  0  0  0  0  0  0  0
  -28.6149   -2.3798  -13.8995 C   0  0  0  0  0  0  0  0  0  0  0  0
  -28.7644   -3.7256  -14.0373 F   0  0  0  0  0  0  0  0  0  0  0  0
  -29.8689   -1.8862  -13.6933 F   0  0  0  0  0  0  0  0  0  0  0  0
  -28.2291   -1.9154  -15.1190 F   0  0  0  0  0  0  0  0  0  0  0  0
  -27.9962   -6.4856   -5.3974 N   0  0  0  0  0  0  0  0  0  0  0  0
  -27.3480   -6.2739   -4.6428 H   0  0  0  0  0  0  0  0  0  0  0  0
  -28.5147   -7.7329   -5.1842 C   0  0  0  0  0  0  0  0  0  0  0  0
  -27.8664   -8.5104   -4.3302 N   0  0  0  0  0  0  0  0  0  0  0  0
  -27.1609   -9.3127   -5.1867 C   0  0  0  0  0  0  0  0  0  0  0  0
  -25.9578   -9.9952   -4.9717 C   0  0  0  0  0  0  0  0  0  0  0  0
  -25.3546  -10.6222   -6.0650 C   0  0  0  0  0  0  0  0  0  0  0  0
  -25.9769  -10.6402   -7.3175 C   0  0  0  0  0  0  0  0  0  0  0  0
  -27.2212  -10.0333   -7.5324 C   0  0  0  0  0  0  0  0  0  0  0  0
  -27.7583   -9.3311   -6.4512 C   0  0  0  0  0  0  0  0  0  0  0  0
  -28.9011   -8.5687   -6.2350 N   0  0  0  0  0  0  0  0  0  0  0  0
  -30.1911   -8.7718   -6.8020 C   0  0  0  0  0  0  0  0  0  0  0  0
  -30.4404   -9.9152   -7.5444 C   0  0  0  0  0  0  0  0  0  0  0  0
  -31.7055  -10.0419   -8.0767 C   0  0  0  0  0  0  0  0  0  0  0  0
  -32.0705  -11.1953   -8.7752 N   0  0  0  0  0  0  0  0  0  0  0  0
  -32.6575   -9.1202   -7.9170 N   0  0  0  0  0  0  0  0  0  0  0  0
  -32.3125   -8.0289   -7.2199 C   0  0  0  0  0  0  0  0  0  0  0  0
  -31.1170   -7.7991   -6.6558 N   0  0  0  0  0  0  0  0  0  0  0  0
  -31.4333  -11.3890   -9.5411 H   0  0  0  0  0  0  0  0  0  0  0  0
  -33.0206  -11.0483   -9.1137 H   0  0  0  0  0  0  0  0  0  0  0  0
 24 25  1  0  0  0
 25 18  1  0  0  0
 18 19  1  0  0  0
 18 23  1  0  0  0
 19 20  1  0  0  0
 20 21  1  0  0  0
 21 12  1  0  0  0
 21 22  1  0  0  0
 12 13  1  0  0  0
 12 17  2  0  0  0
 13 14  2  0  0  0
 14  8  1  0  0  0
 14 15  1  0  0  0
  8  9  2  0  0  0
  8 10  1  0  0  0
 10  1  1  0  0  0
 10 11  1  0  0  0
  1  2  1  0  0  0
  1  7  2  0  0  0
  2  3  2  0  0  0
  3  4  1  0  0  0
  4  5  1  0  0  0
  4  6  2  0  0  0
  6 30  1  0  0  0
  6  7  1  0  0  0
 30 32  1  0  0  0
 30 31  1  0  0  0
 32 33  2  0  0  0
 32 40  1  0  0  0
 33 34  1  0  0  0
 34 35  1  0  0  0
 34 39  2  0  0  0
 35 36  2  0  0  0
 36 37  1  0  0  0
 37 38  2  0  0  0
 38 39  1  0  0  0
 39 40  1  0  0  0
 40 41  1  0  0  0
 41 42  1  0  0  0
 41 47  2  0  0  0
 42 43  2  0  0  0
 43 44  1  0  0  0
 43 45  1  0  0  0
 44 48  1  0  0  0
 44 49  1  0  0  0
 45 46  2  0  0  0
 46 47  1  0  0  0
 15 16  2  0  0  0
 16 26  1  0  0  0
 16 17  1  0  0  0
 26 27  1  0  0  0
 26 28  1  0  0  0
 26 29  1  0  0  0
 22 23  1  0  0  0
M  END
> <minimizedAffinity>
-9.61376

$$$$
