CHEMBL4556620


 34 37  0  0  0  0  0  0  0  0999 V2000
  -29.7643   -4.0568   -4.2402 C   0  0  0  0  0  0  0  0  0  0  0  0
  -30.6996   -3.7147   -5.0876 N   0  0  0  0  0  0  0  0  0  0  0  0
  -30.0480   -3.1290   -6.1979 C   0  0  0  0  0  0  0  0  0  0  0  0
  -30.3931   -3.5890   -7.4552 C   0  0  0  0  0  0  0  0  0  0  0  0
  -29.4695   -3.4603   -8.4823 C   0  0  0  0  0  0  0  0  0  0  0  0
  -28.2252   -2.8390   -8.2675 C   0  0  0  0  0  0  0  0  0  0  0  0
  -27.9797   -2.1558   -7.0709 C   0  0  0  0  0  0  0  0  0  0  0  0
  -28.8583   -2.3708   -6.0138 C   0  0  0  0  0  0  0  0  0  0  0  0
  -28.4629   -2.0687   -4.6899 N   0  0  0  0  0  0  0  0  0  0  0  0
  -28.9347   -2.8723   -3.6634 C   0  0  0  0  0  0  0  0  0  0  0  0
  -28.6756   -2.7450   -2.4861 O   0  0  0  0  0  0  0  0  0  0  0  0
  -27.7039   -1.4403   -4.4749 H   0  0  0  0  0  0  0  0  0  0  0  0
  -27.1492   -3.0202   -9.1754 N   0  0  0  0  0  0  0  0  0  0  0  0
  -26.9017   -2.1163  -10.2059 C   0  0  0  0  0  0  0  0  0  0  0  0
  -27.5807   -1.1142  -10.4090 O   0  0  0  0  0  0  0  0  0  0  0  0
  -25.8230   -2.4823  -10.9926 N   0  0  0  0  0  0  0  0  0  0  0  0
  -26.8333   -3.9656   -9.3251 H   0  0  0  0  0  0  0  0  0  0  0  0
  -25.5692   -3.4567  -11.0106 H   0  0  0  0  0  0  0  0  0  0  0  0
  -25.2749   -1.6587  -12.0081 C   0  0  0  0  0  0  0  0  0  0  0  0
  -25.5389   -1.8618  -13.3687 C   0  0  0  0  0  0  0  0  0  0  0  0
  -24.9429   -1.0642  -14.3459 C   0  0  0  0  0  0  0  0  0  0  0  0
  -24.0896   -0.0340  -13.9715 C   0  0  0  0  0  0  0  0  0  0  0  0
  -23.8499    0.2086  -12.6197 C   0  0  0  0  0  0  0  0  0  0  0  0
  -24.4459   -0.5954  -11.6392 C   0  0  0  0  0  0  0  0  0  0  0  0
  -29.1549   -5.2892   -4.3750 N   0  0  0  0  0  0  0  0  0  0  0  0
  -28.1629   -5.2596   -4.1627 H   0  0  0  0  0  0  0  0  0  0  0  0
  -30.1331   -7.8933   -7.5011 C   0  0  0  0  0  0  0  0  0  0  0  0
  -31.0630   -7.6123   -6.5007 C   0  0  0  0  0  0  0  0  0  0  0  0
  -30.7264   -6.7666   -5.4529 C   0  0  0  0  0  0  0  0  0  0  0  0
  -29.4605   -6.1931   -5.3907 C   0  0  0  0  0  0  0  0  0  0  0  0
  -28.5467   -6.4207   -6.4236 C   0  0  0  0  0  0  0  0  0  0  0  0
  -28.8758   -7.2861   -7.4680 C   0  0  0  0  0  0  0  0  0  0  0  0
  -29.1747   -9.2243   -9.2006 C   0  0  0  0  0  0  0  0  0  0  0  0
  -30.3472   -8.7428   -8.5531 O   0  0  0  0  0  0  0  0  0  0  0  0
 33 34  1  0  0  0
 34 27  1  0  0  0
 27 28  1  0  0  0
 27 32  2  0  0  0
 28 29  2  0  0  0
 29 30  1  0  0  0
 30 25  1  0  0  0
 30 31  2  0  0  0
 25  1  1  0  0  0
 25 26  1  0  0  0
  1  2  2  0  0  0
  1 10  1  0  0  0
  2  3  1  0  0  0
  3  4  1  0  0  0
  3  8  2  0  0  0
  4  5  2  0  0  0
  5  6  1  0  0  0
  6 13  1  0  0  0
  6  7  2  0  0  0
 13 14  1  0  0  0
 13 17  1  0  0  0
 14 15  2  0  0  0
 14 16  1  0  0  0
 16 19  1  0  0  0
 16 18  1  0  0  0
 19 20  1  0  0  0
 19 24  2  0  0  0
 20 21  2  0  0  0
 21 22  1  0  0  0
 22 23  2  0  0  0
 23 24  1  0  0  0
  7  8  1  0  0  0
  8  9  1  0  0  0
  9 10  1  0  0  0
  9 12  1  0  0  0
 10 11  2  0  0  0
 31 32  1  0  0  0
M  END
> <minimizedAffinity>
-9.52040

$$$$
