CHEMBL3657558


 38 42  0  0  0  0  0  0  0  0999 V2000
  -27.7136   -2.0700   -8.9949 C   0  0  0  0  0  0  0  0  0  0  0  0
  -27.5879   -1.0494   -8.0805 C   0  0  0  0  0  0  0  0  0  0  0  0
  -28.1971   -1.2633   -6.8661 C   0  0  0  0  0  0  0  0  0  0  0  0
  -28.8834   -2.3806   -6.5623 N   0  0  0  0  0  0  0  0  0  0  0  0
  -28.9951   -3.3178   -7.5148 C   0  0  0  0  0  0  0  0  0  0  0  0
  -28.4197   -3.2051   -8.7298 N   0  0  0  0  0  0  0  0  0  0  0  0
  -27.2300   -1.7337  -13.8302 C   0  0  0  0  0  0  0  0  0  0  0  0
  -26.8355   -1.8231  -12.3995 C   0  0  0  0  0  0  0  0  0  0  0  0
  -27.7693   -1.9557  -11.4468 N   0  0  0  0  0  0  0  0  0  0  0  0
  -27.0743   -1.9398  -10.2761 N   0  0  0  0  0  0  0  0  0  0  0  0
  -25.7277   -1.7685  -10.5125 C   0  0  0  0  0  0  0  0  0  0  0  0
  -25.5063   -1.7744  -11.8811 C   0  0  0  0  0  0  0  0  0  0  0  0
  -24.2430   -1.7349  -12.7254 C   0  0  0  0  0  0  0  0  0  0  0  0
  -24.0485   -0.4701  -13.4557 N   0  0  0  0  0  0  0  0  0  0  0  0
  -23.9076    0.6463  -12.5057 C   0  0  0  0  0  0  0  0  0  0  0  0
  -22.8354    1.6043  -13.0239 C   0  0  0  0  0  0  0  0  0  0  0  0
  -23.2066    2.6528  -13.9113 O   0  0  0  0  0  0  0  0  0  0  0  0
  -21.9051    0.6694  -13.7726 C   0  0  0  0  0  0  0  0  0  0  0  0
  -21.2288    1.3584  -14.8348 O   0  0  0  0  0  0  0  0  0  0  0  0
  -22.8324   -0.4384  -14.2952 C   0  0  0  0  0  0  0  0  0  0  0  0
  -23.7550    2.3061  -14.6436 H   0  0  0  0  0  0  0  0  0  0  0  0
  -21.6530    2.2500  -14.8737 H   0  0  0  0  0  0  0  0  0  0  0  0
  -29.8105   -4.4087   -7.1685 N   0  0  0  0  0  0  0  0  0  0  0  0
  -30.7650   -4.2077   -7.4403 H   0  0  0  0  0  0  0  0  0  0  0  0
  -29.5502   -5.6752   -6.6238 C   0  0  0  0  0  0  0  0  0  0  0  0
  -28.8732   -5.8190   -5.3922 C   0  0  0  0  0  0  0  0  0  0  0  0
  -28.6808   -7.0654   -4.7636 C   0  0  0  0  0  0  0  0  0  0  0  0
  -29.0968   -8.2123   -5.4482 C   0  0  0  0  0  0  0  0  0  0  0  0
  -29.6790   -8.1070   -6.7022 C   0  0  0  0  0  0  0  0  0  0  0  0
  -30.0018   -6.8389   -7.2244 C   0  0  0  0  0  0  0  0  0  0  0  0
  -29.8824   -9.4417   -7.1100 C   0  0  0  0  0  0  0  0  0  0  0  0
  -29.4961  -10.3309   -6.1922 N   0  0  0  0  0  0  0  0  0  0  0  0
  -29.1398   -9.5591   -5.1537 N   0  0  0  0  0  0  0  0  0  0  0  0
  -28.9227  -10.2210   -3.8904 C   0  0  0  0  0  0  0  0  0  0  0  0
  -30.9241   -9.7975   -8.4022 S   0  0  0  0  0  0  0  0  0  0  0  0
  -31.2751  -11.5291   -8.4254 C   0  0  0  0  0  0  0  0  0  0  0  0
  -32.1878   -9.1127   -8.1791 O   0  0  0  0  0  0  0  0  0  0  0  0
  -30.0366   -9.4511   -9.4880 O   0  0  0  0  0  0  0  0  0  0  0  0
  7  8  1  0  0  0
  8  9  2  0  0  0
  8 12  1  0  0  0
  9 10  1  0  0  0
 10  1  1  0  0  0
 10 11  1  0  0  0
  1  2  1  0  0  0
  1  6  2  0  0  0
  2  3  2  0  0  0
  3  4  1  0  0  0
  4  5  2  0  0  0
  5 23  1  0  0  0
  5  6  1  0  0  0
 23 25  1  0  0  0
 23 24  1  0  0  0
 25 26  1  0  0  0
 25 30  2  0  0  0
 26 27  2  0  0  0
 27 28  1  0  0  0
 28 29  2  0  0  0
 28 33  1  0  0  0
 29 30  1  0  0  0
 29 31  1  0  0  0
 31 35  1  0  0  0
 31 32  2  0  0  0
 35 36  1  0  0  0
 35 37  2  0  0  0
 35 38  2  0  0  0
 32 33  1  0  0  0
 33 34  1  0  0  0
 11 12  2  0  0  0
 12 13  1  0  0  0
 13 14  1  0  0  0
 14 15  1  0  0  0
 14 20  1  0  0  0
 15 16  1  0  0  0
 16 17  1  0  0  0
 16 18  1  0  0  0
 17 21  1  0  0  0
 18 19  1  0  0  0
 18 20  1  0  0  0
 19 22  1  0  0  0
M  END
> <minimizedAffinity>
-9.19995

$$$$
