CHEMBL244286


 40 43  0  0  0  0  0  0  0  0999 V2000
  -17.0588    1.5481  -15.0683 C   0  0  0  0  0  0  0  0  0  0  0  0
  -16.0393    1.1310  -15.9165 C   0  0  0  0  0  0  0  0  0  0  0  0
  -15.0290    0.2913  -15.4384 C   0  0  0  0  0  0  0  0  0  0  0  0
  -15.0206   -0.1430  -14.1085 C   0  0  0  0  0  0  0  0  0  0  0  0
  -16.0133    0.3319  -13.2463 C   0  0  0  0  0  0  0  0  0  0  0  0
  -17.0103    1.1957  -13.7170 C   0  0  0  0  0  0  0  0  0  0  0  0
  -14.0799   -1.0630  -13.5913 N   0  0  0  0  0  0  0  0  0  0  0  0
  -14.3271   -2.3809  -13.2577 C   0  0  0  0  0  0  0  0  0  0  0  0
  -15.3822   -2.9744  -13.4530 O   0  0  0  0  0  0  0  0  0  0  0  0
  -13.2399   -2.9709  -12.6313 N   0  0  0  0  0  0  0  0  0  0  0  0
  -13.1205   -0.7559  -13.5275 H   0  0  0  0  0  0  0  0  0  0  0  0
  -12.7641   -2.3655  -11.9730 H   0  0  0  0  0  0  0  0  0  0  0  0
  -13.3184   -4.3352  -12.2393 C   0  0  0  0  0  0  0  0  0  0  0  0
  -12.9715   -5.3488  -13.1454 C   0  0  0  0  0  0  0  0  0  0  0  0
  -13.1077   -6.7023  -12.8046 C   0  0  0  0  0  0  0  0  0  0  0  0
  -13.6080   -7.0308  -11.5355 C   0  0  0  0  0  0  0  0  0  0  0  0
  -13.9361   -6.0272  -10.6185 C   0  0  0  0  0  0  0  0  0  0  0  0
  -13.7717   -4.6835  -10.9612 C   0  0  0  0  0  0  0  0  0  0  0  0
  -14.2208   -3.4722   -9.8139 Cl  0  0  0  0  0  0  0  0  0  0  0  0
  -12.7315   -7.7902  -13.7820 C   0  0  0  0  0  0  0  0  0  0  0  0
  -13.7978   -8.4030  -14.3640 F   0  0  0  0  0  0  0  0  0  0  0  0
  -11.9741   -7.3133  -14.8098 F   0  0  0  0  0  0  0  0  0  0  0  0
  -11.9958   -8.7803  -13.2063 F   0  0  0  0  0  0  0  0  0  0  0  0
  -18.0445    2.3236  -15.6390 O   0  0  0  0  0  0  0  0  0  0  0  0
  -23.1905    0.4158  -13.6816 C   0  0  0  0  0  0  0  0  0  0  0  0
  -23.1783    1.7235  -13.7532 N   0  0  0  0  0  0  0  0  0  0  0  0
  -21.9199    2.0672  -14.1576 C   0  0  0  0  0  0  0  0  0  0  0  0
  -21.3857    3.3400  -14.3851 C   0  0  0  0  0  0  0  0  0  0  0  0
  -20.0654    3.4368  -14.8306 C   0  0  0  0  0  0  0  0  0  0  0  0
  -19.3168    2.2841  -15.1036 C   0  0  0  0  0  0  0  0  0  0  0  0
  -19.8165    1.0053  -14.8124 C   0  0  0  0  0  0  0  0  0  0  0  0
  -21.1322    0.9386  -14.3465 C   0  0  0  0  0  0  0  0  0  0  0  0
  -21.9568   -0.1039  -13.9936 N   0  0  0  0  0  0  0  0  0  0  0  0
  -21.7078   -1.0803  -14.0034 H   0  0  0  0  0  0  0  0  0  0  0  0
  -24.1429   -1.3760  -12.4184 C   0  0  0  0  0  0  0  0  0  0  0  0
  -23.1772   -1.6904  -11.7423 O   0  0  0  0  0  0  0  0  0  0  0  0
  -24.2531   -0.3863  -13.3526 N   0  0  0  0  0  0  0  0  0  0  0  0
  -25.1561   -0.2648  -13.7769 H   0  0  0  0  0  0  0  0  0  0  0  0
  -26.4441   -1.1051  -12.1159 C   0  0  0  0  0  0  0  0  0  0  0  0
  -25.3516   -2.0068  -12.3263 O   0  0  0  0  0  0  0  0  0  0  0  0
 39 40  1  0  0  0
 40 35  1  0  0  0
 35 36  2  0  0  0
 35 37  1  0  0  0
 37 25  1  0  0  0
 37 38  1  0  0  0
 25 26  2  0  0  0
 25 33  1  0  0  0
 26 27  1  0  0  0
 27 28  1  0  0  0
 27 32  2  0  0  0
 28 29  2  0  0  0
 29 30  1  0  0  0
 30 24  1  0  0  0
 30 31  2  0  0  0
 24  1  1  0  0  0
  1  2  1  0  0  0
  1  6  2  0  0  0
  2  3  2  0  0  0
  3  4  1  0  0  0
  4  7  1  0  0  0
  4  5  2  0  0  0
  7  8  1  0  0  0
  7 11  1  0  0  0
  8  9  2  0  0  0
  8 10  1  0  0  0
 10 13  1  0  0  0
 10 12  1  0  0  0
 13 14  1  0  0  0
 13 18  2  0  0  0
 14 15  2  0  0  0
 15 20  1  0  0  0
 15 16  1  0  0  0
 20 21  1  0  0  0
 20 22  1  0  0  0
 20 23  1  0  0  0
 16 17  2  0  0  0
 17 18  1  0  0  0
 18 19  1  0  0  0
  5  6  1  0  0  0
 31 32  1  0  0  0
 32 33  1  0  0  0
 33 34  1  0  0  0
M  END
> <minimizedAffinity>
-9.73809

$$$$
