CHEMBL1970203


 36 39  0  0  0  0  0  0  0  0999 V2000
  -15.3436    3.3856  -16.1450 C   0  0  0  0  0  0  0  0  0  0  0  0
  -16.6125    2.8720  -15.8876 C   0  0  0  0  0  0  0  0  0  0  0  0
  -16.7697    1.5920  -15.3577 C   0  0  0  0  0  0  0  0  0  0  0  0
  -15.6651    0.7900  -15.0690 C   0  0  0  0  0  0  0  0  0  0  0  0
  -14.3933    1.2779  -15.4053 C   0  0  0  0  0  0  0  0  0  0  0  0
  -14.2325    2.5637  -15.9613 C   0  0  0  0  0  0  0  0  0  0  0  0
  -14.7340    6.4020  -18.0624 N   0  0  0  0  0  0  0  0  0  0  0  0
  -14.8904    5.0416  -17.8484 C   0  0  0  0  0  0  0  0  0  0  0  0
  -14.8027    4.1921  -18.7281 O   0  0  0  0  0  0  0  0  0  0  0  0
  -15.1890    4.7430  -16.5211 N   0  0  0  0  0  0  0  0  0  0  0  0
  -14.3809    6.9315  -17.2781 H   0  0  0  0  0  0  0  0  0  0  0  0
  -15.7920    5.4171  -16.0732 H   0  0  0  0  0  0  0  0  0  0  0  0
  -11.7716    8.0679  -21.6647 C   0  0  0  0  0  0  0  0  0  0  0  0
  -13.1489    7.8083  -21.1276 C   0  0  0  0  0  0  0  0  0  0  0  0
  -14.2733    8.0816  -21.9179 C   0  0  0  0  0  0  0  0  0  0  0  0
  -15.5582    7.8330  -21.4330 C   0  0  0  0  0  0  0  0  0  0  0  0
  -16.7772    8.1162  -22.2606 C   0  0  0  0  0  0  0  0  0  0  0  0
  -15.7078    7.2924  -20.1494 C   0  0  0  0  0  0  0  0  0  0  0  0
  -14.5995    6.9845  -19.3505 C   0  0  0  0  0  0  0  0  0  0  0  0
  -13.3205    7.2730  -19.8375 C   0  0  0  0  0  0  0  0  0  0  0  0
  -15.7724   -0.4824  -14.4465 N   0  0  0  0  0  0  0  0  0  0  0  0
  -14.9537   -0.9500  -13.4257 C   0  0  0  0  0  0  0  0  0  0  0  0
  -14.0065   -0.3305  -12.9514 O   0  0  0  0  0  0  0  0  0  0  0  0
  -16.4996   -1.0932  -14.7895 H   0  0  0  0  0  0  0  0  0  0  0  0
  -15.2547   -2.2834  -12.8927 C   0  0  0  0  0  0  0  0  0  0  0  0
  -15.9414   -2.5369  -11.7176 C   0  0  0  0  0  0  0  0  0  0  0  0
  -16.2752   -4.2006  -11.4951 S   0  0  0  0  0  0  0  0  0  0  0  0
  -15.5078   -4.6157  -12.9566 C   0  0  0  0  0  0  0  0  0  0  0  0
  -15.4765   -5.8952  -13.3667 N   0  0  0  0  0  0  0  0  0  0  0  0
  -14.8270   -6.0400  -14.5239 C   0  0  0  0  0  0  0  0  0  0  0  0
  -14.2254   -5.0861  -15.2463 N   0  0  0  0  0  0  0  0  0  0  0  0
  -14.2692   -3.8179  -14.7972 C   0  0  0  0  0  0  0  0  0  0  0  0
  -13.5979   -2.8824  -15.5764 N   0  0  0  0  0  0  0  0  0  0  0  0
  -14.9617   -3.5208  -13.6068 C   0  0  0  0  0  0  0  0  0  0  0  0
  -13.4414   -3.2384  -16.5131 H   0  0  0  0  0  0  0  0  0  0  0  0
  -14.0190   -1.9509  -15.5440 H   0  0  0  0  0  0  0  0  0  0  0  0
 13 14  1  0  0  0
 14 15  1  0  0  0
 14 20  2  0  0  0
 15 16  2  0  0  0
 16 17  1  0  0  0
 16 18  1  0  0  0
 18 19  2  0  0  0
 19  7  1  0  0  0
 19 20  1  0  0  0
  7  8  1  0  0  0
  7 11  1  0  0  0
  8  9  2  0  0  0
  8 10  1  0  0  0
 10  1  1  0  0  0
 10 12  1  0  0  0
  1  2  1  0  0  0
  1  6  2  0  0  0
  2  3  2  0  0  0
  3  4  1  0  0  0
  4 21  1  0  0  0
  4  5  2  0  0  0
 21 22  1  0  0  0
 21 24  1  0  0  0
 22 23  2  0  0  0
 22 25  1  0  0  0
 25 26  2  0  0  0
 25 34  1  0  0  0
 26 27  1  0  0  0
 27 28  1  0  0  0
 28 29  1  0  0  0
 28 34  2  0  0  0
 29 30  2  0  0  0
 30 31  1  0  0  0
 31 32  2  0  0  0
 32 33  1  0  0  0
 32 34  1  0  0  0
 33 35  1  0  0  0
 33 36  1  0  0  0
  5  6  1  0  0  0
M  END
> <minimizedAffinity>
-7.36906

$$$$
