CHEMBL3893659


 34 38  0  0  0  0  0  0  0  0999 V2000
  -15.4988    1.8907  -16.0010 N   0  0  0  0  0  0  0  0  0  0  0  0
  -16.8468    2.0827  -15.5303 C   0  0  0  0  0  0  0  0  0  0  0  0
  -17.3516    1.0084  -14.8558 C   0  0  0  0  0  0  0  0  0  0  0  0
  -18.6526    1.0339  -14.5611 C   0  0  0  0  0  0  0  0  0  0  0  0
  -19.4848    1.9939  -15.0291 C   0  0  0  0  0  0  0  0  0  0  0  0
  -20.6100    1.4518  -15.2160 N   0  0  0  0  0  0  0  0  0  0  0  0
  -21.2476    1.2428  -14.1080 C   0  0  0  0  0  0  0  0  0  0  0  0
  -22.1555    2.1720  -13.9829 C   0  0  0  0  0  0  0  0  0  0  0  0
  -21.0825    3.3536  -14.7165 N   0  0  0  0  0  0  0  0  0  0  0  0
  -19.4191    3.2546  -15.2843 C   0  0  0  0  0  0  0  0  0  0  0  0
  -17.7986    3.1859  -15.8479 C   0  0  0  0  0  0  0  0  0  0  0  0
  -23.2581    0.6734  -13.5713 C   0  0  0  0  0  0  0  0  0  0  0  0
  -23.9949   -0.6475  -14.1787 C   0  0  0  0  0  0  0  0  0  0  0  0
  -24.8771   -1.4113  -13.4376 N   0  0  0  0  0  0  0  0  0  0  0  0
  -24.8814   -0.8704  -12.2162 N   0  0  0  0  0  0  0  0  0  0  0  0
  -25.7045   -1.4847  -11.0914 C   0  0  0  0  0  0  0  0  0  0  0  0
  -24.0189    0.3669  -12.2802 C   0  0  0  0  0  0  0  0  0  0  0  0
  -13.4901   -1.0665  -14.7328 C   0  0  0  0  0  0  0  0  0  0  0  0
  -12.9055   -0.5109  -13.6516 C   0  0  0  0  0  0  0  0  0  0  0  0
  -13.0292    0.8546  -13.4121 C   0  0  0  0  0  0  0  0  0  0  0  0
  -13.9459    1.6384  -14.1191 C   0  0  0  0  0  0  0  0  0  0  0  0
  -14.5239    1.1543  -15.2651 C   0  0  0  0  0  0  0  0  0  0  0  0
  -14.0594   -0.1260  -15.5917 C   0  0  0  0  0  0  0  0  0  0  0  0
  -12.2188    1.5105  -12.5366 O   0  0  0  0  0  0  0  0  0  0  0  0
  -12.0909    2.9045  -12.7988 C   0  0  0  0  0  0  0  0  0  0  0  0
  -13.4923   -2.5762  -14.9554 C   0  0  0  0  0  0  0  0  0  0  0  0
  -14.1140   -3.4166  -13.8888 N   0  0  0  0  0  0  0  0  0  0  0  0
  -14.2055   -4.8083  -14.3076 C   0  0  0  0  0  0  0  0  0  0  0  0
  -16.1610   -3.8104  -12.5511 C   0  0  0  0  0  0  0  0  0  0  0  0
  -15.4397   -2.8920  -13.5289 C   0  0  0  0  0  0  0  0  0  0  0  0
  -15.0634    2.9297  -16.9693 C   0  0  0  0  0  0  0  0  0  0  0  0
  -13.8290    2.5942  -17.7994 C   0  0  0  0  0  0  0  0  0  0  0  0
  -13.6167    2.8282  -19.2757 C   0  0  0  0  0  0  0  0  0  0  0  0
  -13.7765    1.4235  -19.0164 C   0  0  0  0  0  0  0  0  0  0  0  0
 29 30  1  0  0  0
 30 27  1  0  0  0
 27 28  1  0  0  0
 27 26  1  0  0  0
 26 18  1  0  0  0
 18 19  1  0  0  0
 18 23  2  0  0  0
 19 20  2  0  0  0
 20 24  1  0  0  0
 20 21  1  0  0  0
 24 25  1  0  0  0
 21 22  2  0  0  0
 22  1  1  0  0  0
 22 23  1  0  0  0
  1 31  1  0  0  0
  1  2  1  0  0  0
 31 32  1  0  0  0
 32 33  1  0  0  0
 32 34  1  0  0  0
 33 34  1  0  0  0
  2  3  1  0  0  0
  2 11  2  0  0  0
  3  4  2  0  0  0
  4  5  1  0  0  0
  5  6  1  0  0  0
  5 10  2  0  0  0
  6  7  2  0  0  0
  7  8  1  0  0  0
  8 12  1  0  0  0
  8  9  2  0  0  0
 12 13  1  0  0  0
 12 17  2  0  0  0
 13 14  2  0  0  0
 14 15  1  0  0  0
 15 16  1  0  0  0
 15 17  1  0  0  0
  9 10  1  0  0  0
 10 11  1  0  0  0
M  END
> <minimizedAffinity>
-9.01420

$$$$
