CHEMBL3983996


 37 41  0  0  0  0  0  0  0  0999 V2000
  -27.8196   -2.5445   -8.5361 N   0  0  0  0  0  0  0  0  0  0  0  0
  -28.2703   -3.9659   -8.3436 C   0  0  0  0  0  0  0  0  0  0  0  0
  -29.5933   -3.9111   -8.0685 C   0  0  0  0  0  0  0  0  0  0  0  0
  -30.2033   -4.9211   -7.6678 C   0  0  0  0  0  0  0  0  0  0  0  0
  -29.7112   -6.1272   -7.5687 C   0  0  0  0  0  0  0  0  0  0  0  0
  -30.5489   -6.6542   -6.8756 N   0  0  0  0  0  0  0  0  0  0  0  0
  -30.7165   -7.8709   -6.6513 C   0  0  0  0  0  0  0  0  0  0  0  0
  -30.0167   -8.8498   -7.1386 C   0  0  0  0  0  0  0  0  0  0  0  0
  -28.7335   -8.1913   -7.7480 N   0  0  0  0  0  0  0  0  0  0  0  0
  -28.5505   -6.6937   -7.9220 C   0  0  0  0  0  0  0  0  0  0  0  0
  -27.6467   -5.4139   -8.3490 C   0  0  0  0  0  0  0  0  0  0  0  0
  -31.1432  -10.1517   -6.8177 C   0  0  0  0  0  0  0  0  0  0  0  0
  -30.8203  -11.2661   -5.8684 C   0  0  0  0  0  0  0  0  0  0  0  0
  -31.8604  -12.0720   -5.6059 N   0  0  0  0  0  0  0  0  0  0  0  0
  -32.8927  -11.6451   -6.3118 N   0  0  0  0  0  0  0  0  0  0  0  0
  -34.2254  -12.2849   -6.1124 C   0  0  0  0  0  0  0  0  0  0  0  0
  -32.4920  -10.5435   -7.1140 C   0  0  0  0  0  0  0  0  0  0  0  0
  -25.4855   -1.2238  -11.1253 C   0  0  0  0  0  0  0  0  0  0  0  0
  -26.2647   -1.2564  -12.2912 C   0  0  0  0  0  0  0  0  0  0  0  0
  -27.6091   -1.5957  -12.2039 C   0  0  0  0  0  0  0  0  0  0  0  0
  -28.1494   -1.9340  -10.9496 C   0  0  0  0  0  0  0  0  0  0  0  0
  -27.3333   -2.0060   -9.7824 C   0  0  0  0  0  0  0  0  0  0  0  0
  -26.0136   -1.6199   -9.9119 C   0  0  0  0  0  0  0  0  0  0  0  0
  -23.1676   -1.4097  -11.7769 C   0  0  0  0  0  0  0  0  0  0  0  0
  -24.1991   -0.8479  -11.0910 O   0  0  0  0  0  0  0  0  0  0  0  0
  -28.3497   -1.5815  -13.3401 O   0  0  0  0  0  0  0  0  0  0  0  0
  -27.9155   -1.9613  -14.5909 C   0  0  0  0  0  0  0  0  0  0  0  0
  -28.0476   -1.5523   -7.3970 C   0  0  0  0  0  0  0  0  0  0  0  0
  -27.5468   -1.9298   -5.9370 C   0  0  0  0  0  0  0  0  0  0  0  0
  -28.5175   -2.7691   -5.1949 N   0  0  0  0  0  0  0  0  0  0  0  0
  -29.0954   -2.0182   -4.0513 C   0  0  0  0  0  0  0  0  0  0  0  0
  -29.2388   -2.9921   -2.8807 C   0  0  0  0  0  0  0  0  0  0  0  0
  -28.8257   -4.3470   -3.4502 C   0  0  0  0  0  0  0  0  0  0  0  0
  -29.9837   -5.0738   -3.9672 N   0  0  0  0  0  0  0  0  0  0  0  0
  -27.9084   -3.9652   -4.5924 C   0  0  0  0  0  0  0  0  0  0  0  0
  -30.5057   -4.5065   -4.6715 H   0  0  0  0  0  0  0  0  0  0  0  0
  -30.6150   -5.3002   -3.1644 H   0  0  0  0  0  0  0  0  0  0  0  0
 24 25  1  0  0  0
 25 18  1  0  0  0
 18 19  1  0  0  0
 18 23  2  0  0  0
 19 20  2  0  0  0
 20 26  1  0  0  0
 20 21  1  0  0  0
 26 27  1  0  0  0
 21 22  2  0  0  0
 22  1  1  0  0  0
 22 23  1  0  0  0
  1 28  1  0  0  0
  1  2  1  0  0  0
 28 29  1  0  0  0
 29 30  1  0  0  0
 30 31  1  0  0  0
 30 35  1  0  0  0
 31 32  1  0  0  0
 32 33  1  0  0  0
 33 34  1  0  0  0
 33 35  1  0  0  0
 34 36  1  0  0  0
 34 37  1  0  0  0
  2  3  1  0  0  0
  2 11  2  0  0  0
  3  4  2  0  0  0
  4  5  1  0  0  0
  5  6  1  0  0  0
  5 10  2  0  0  0
  6  7  2  0  0  0
  7  8  1  0  0  0
  8 12  1  0  0  0
  8  9  2  0  0  0
 12 13  1  0  0  0
 12 17  2  0  0  0
 13 14  2  0  0  0
 14 15  1  0  0  0
 15 16  1  0  0  0
 15 17  1  0  0  0
  9 10  1  0  0  0
 10 11  1  0  0  0
M  END
> <minimizedAffinity>
-7.23866

$$$$
