CHEMBL209971


 40 45  0  0  0  0  0  0  0  0999 V2000
  -12.1758   -2.7864  -12.6228 C   0  0  0  0  0  0  0  0  0  0  0  0
  -11.1756   -1.8825  -13.0578 C   0  0  0  0  0  0  0  0  0  0  0  0
  -11.5133   -0.6616  -13.6424 C   0  0  0  0  0  0  0  0  0  0  0  0
  -12.8530   -0.3953  -13.8120 C   0  0  0  0  0  0  0  0  0  0  0  0
  -13.8783   -1.2955  -13.4459 C   0  0  0  0  0  0  0  0  0  0  0  0
  -13.5394   -2.4866  -12.8317 C   0  0  0  0  0  0  0  0  0  0  0  0
  -15.2920   -0.7963  -13.7898 C   0  0  0  0  0  0  0  0  0  0  0  0
  -14.9033    0.5404  -14.3192 C   0  0  0  0  0  0  0  0  0  0  0  0
  -13.5129    0.7495  -14.3266 C   0  0  0  0  0  0  0  0  0  0  0  0
  -13.1383    1.9389  -14.7646 N   0  0  0  0  0  0  0  0  0  0  0  0
  -14.3312    2.5013  -15.0608 N   0  0  0  0  0  0  0  0  0  0  0  0
  -15.4361    1.6952  -14.8319 C   0  0  0  0  0  0  0  0  0  0  0  0
  -14.3422    3.4433  -15.4362 H   0  0  0  0  0  0  0  0  0  0  0  0
  -16.7627    2.1193  -15.1621 C   0  0  0  0  0  0  0  0  0  0  0  0
  -17.1758    3.2128  -15.8965 C   0  0  0  0  0  0  0  0  0  0  0  0
  -18.5985    3.3915  -15.8479 C   0  0  0  0  0  0  0  0  0  0  0  0
  -19.2231    2.4166  -15.0931 C   0  0  0  0  0  0  0  0  0  0  0  0
  -18.1056    1.2460  -14.5511 S   0  0  0  0  0  0  0  0  0  0  0  0
  -20.6389    2.3397  -14.6139 C   0  0  0  0  0  0  0  0  0  0  0  0
  -21.3249    1.0666  -14.8407 N   0  0  0  0  0  0  0  0  0  0  0  0
  -20.5961   -0.0585  -15.4171 C   0  0  0  0  0  0  0  0  0  0  0  0
  -22.4254    0.8818  -13.9870 C   0  0  0  0  0  0  0  0  0  0  0  0
  -22.8645    1.8118  -13.3146 O   0  0  0  0  0  0  0  0  0  0  0  0
  -22.9384   -0.3935  -13.9528 N   0  0  0  0  0  0  0  0  0  0  0  0
  -22.3601   -1.1454  -14.2997 H   0  0  0  0  0  0  0  0  0  0  0  0
  -24.0779   -0.8320  -13.2356 C   0  0  0  0  0  0  0  0  0  0  0  0
  -24.1121   -0.9273  -11.8408 C   0  0  0  0  0  0  0  0  0  0  0  0
  -25.2621   -1.3719  -11.1838 C   0  0  0  0  0  0  0  0  0  0  0  0
  -26.3945   -1.7273  -11.9121 C   0  0  0  0  0  0  0  0  0  0  0  0
  -26.3867   -1.6209  -13.3021 C   0  0  0  0  0  0  0  0  0  0  0  0
  -25.2385   -1.1700  -13.9576 C   0  0  0  0  0  0  0  0  0  0  0  0
  -25.2748   -1.0606  -15.6878 Cl  0  0  0  0  0  0  0  0  0  0  0  0
  -11.7820   -4.0527  -11.8853 C   0  0  0  0  0  0  0  0  0  0  0  0
  -10.6970   -5.1497   -7.3719 C   0  0  0  0  0  0  0  0  0  0  0  0
  -11.7645   -5.2249   -8.3646 N   0  0  0  0  0  0  0  0  0  0  0  0
  -12.1718   -3.8824   -8.8021 C   0  0  0  0  0  0  0  0  0  0  0  0
  -13.2560   -3.9426   -9.9025 C   0  0  0  0  0  0  0  0  0  0  0  0
  -12.8559   -4.6961  -11.1103 N   0  0  0  0  0  0  0  0  0  0  0  0
  -12.4207   -6.0435  -10.6620 C   0  0  0  0  0  0  0  0  0  0  0  0
  -11.3645   -6.0473   -9.5222 C   0  0  0  0  0  0  0  0  0  0  0  0
 34 35  1  0  0  0
 35 36  1  0  0  0
 35 40  1  0  0  0
 36 37  1  0  0  0
 37 38  1  0  0  0
 38 33  1  0  0  0
 38 39  1  0  0  0
 33  1  1  0  0  0
  1  2  1  0  0  0
  1  6  2  0  0  0
  2  3  2  0  0  0
  3  4  1  0  0  0
  4  5  2  0  0  0
  4  9  1  0  0  0
  5  6  1  0  0  0
  5  7  1  0  0  0
  7  8  1  0  0  0
  8  9  1  0  0  0
  8 12  2  0  0  0
  9 10  2  0  0  0
 10 11  1  0  0  0
 11 12  1  0  0  0
 11 13  1  0  0  0
 12 14  1  0  0  0
 14 15  2  0  0  0
 14 18  1  0  0  0
 15 16  1  0  0  0
 16 17  2  0  0  0
 17 19  1  0  0  0
 17 18  1  0  0  0
 19 20  1  0  0  0
 20 21  1  0  0  0
 20 22  1  0  0  0
 22 23  2  0  0  0
 22 24  1  0  0  0
 24 26  1  0  0  0
 24 25  1  0  0  0
 26 27  1  0  0  0
 26 31  2  0  0  0
 27 28  2  0  0  0
 28 29  1  0  0  0
 29 30  2  0  0  0
 30 31  1  0  0  0
 31 32  1  0  0  0
 39 40  1  0  0  0
M  END
> <minimizedAffinity>
-9.49394

$$$$
