CHEMBL68920


 30 33  0  0  0  0  0  0  0  0999 V2000
  -28.5306   -5.1852   -7.9848 C   0  0  0  0  0  0  0  0  0  0  0  0
  -28.3517   -4.4074   -6.9058 C   0  0  0  0  0  0  0  0  0  0  0  0
  -28.3237   -4.7473   -5.4396 C   0  0  0  0  0  0  0  0  0  0  0  0
  -28.4592   -5.8366   -4.9166 O   0  0  0  0  0  0  0  0  0  0  0  0
  -28.1174   -3.5444   -4.7946 N   0  0  0  0  0  0  0  0  0  0  0  0
  -28.0117   -2.4946   -5.6912 C   0  0  0  0  0  0  0  0  0  0  0  0
  -27.8222   -1.2310   -5.3173 N   0  0  0  0  0  0  0  0  0  0  0  0
  -27.7824   -0.3779   -6.3468 C   0  0  0  0  0  0  0  0  0  0  0  0
  -27.9291   -0.6937   -7.6483 N   0  0  0  0  0  0  0  0  0  0  0  0
  -28.1201   -1.9920   -7.9706 C   0  0  0  0  0  0  0  0  0  0  0  0
  -28.1464   -2.9530   -6.9885 C   0  0  0  0  0  0  0  0  0  0  0  0
  -28.0719   -3.4284   -3.7949 H   0  0  0  0  0  0  0  0  0  0  0  0
  -27.4306   -9.8289   -9.1990 C   0  0  0  0  0  0  0  0  0  0  0  0
  -28.2391   -8.7196   -8.6404 C   0  0  0  0  0  0  0  0  0  0  0  0
  -29.4799   -8.7122   -8.0429 C   0  0  0  0  0  0  0  0  0  0  0  0
  -29.7867   -7.3703   -7.6958 C   0  0  0  0  0  0  0  0  0  0  0  0
  -31.0320   -6.8915   -7.0338 C   0  0  0  0  0  0  0  0  0  0  0  0
  -28.7085   -6.5857   -8.0942 C   0  0  0  0  0  0  0  0  0  0  0  0
  -27.7819   -7.4241   -8.6591 N   0  0  0  0  0  0  0  0  0  0  0  0
  -26.8843   -7.1385   -9.0420 H   0  0  0  0  0  0  0  0  0  0  0  0
  -28.2609   -2.3353   -9.3299 N   0  0  0  0  0  0  0  0  0  0  0  0
  -28.5742   -3.2988   -9.4137 H   0  0  0  0  0  0  0  0  0  0  0  0
  -27.4046   -1.9266  -10.3731 C   0  0  0  0  0  0  0  0  0  0  0  0
  -26.0755   -1.5746  -10.0972 C   0  0  0  0  0  0  0  0  0  0  0  0
  -25.2072   -1.2119  -11.1316 C   0  0  0  0  0  0  0  0  0  0  0  0
  -25.6541   -1.2294  -12.4482 C   0  0  0  0  0  0  0  0  0  0  0  0
  -24.8076   -0.8688  -13.4230 F   0  0  0  0  0  0  0  0  0  0  0  0
  -26.9536   -1.6260  -12.7456 C   0  0  0  0  0  0  0  0  0  0  0  0
  -27.5094   -1.6867  -14.3737 Cl  0  0  0  0  0  0  0  0  0  0  0  0
  -27.8184   -1.9856  -11.7140 C   0  0  0  0  0  0  0  0  0  0  0  0
 13 14  1  0  0  0
 14 15  2  0  0  0
 14 19  1  0  0  0
 15 16  1  0  0  0
 16 17  1  0  0  0
 16 18  2  0  0  0
 18  1  1  0  0  0
 18 19  1  0  0  0
  1  2  2  0  0  0
  2  3  1  0  0  0
  2 11  1  0  0  0
  3  4  2  0  0  0
  3  5  1  0  0  0
  5  6  1  0  0  0
  5 12  1  0  0  0
  6  7  1  0  0  0
  6 11  2  0  0  0
  7  8  2  0  0  0
  8  9  1  0  0  0
  9 10  2  0  0  0
 10 21  1  0  0  0
 10 11  1  0  0  0
 21 23  1  0  0  0
 21 22  1  0  0  0
 23 24  1  0  0  0
 23 30  2  0  0  0
 24 25  2  0  0  0
 25 26  1  0  0  0
 26 27  1  0  0  0
 26 28  2  0  0  0
 28 29  1  0  0  0
 28 30  1  0  0  0
 19 20  1  0  0  0
M  END
> <minimizedAffinity>
-9.00443

$$$$
