CHEMBL218646


 45 48  0  0  0  0  0  0  0  0999 V2000
  -13.9013    0.3058  -14.2560 C   0  0  0  0  0  0  0  0  0  0  0  0
  -14.9668    0.7114  -13.4399 C   0  0  0  0  0  0  0  0  0  0  0  0
  -15.6405   -0.2205  -12.6540 C   0  0  0  0  0  0  0  0  0  0  0  0
  -15.2931   -1.5691  -12.7222 C   0  0  0  0  0  0  0  0  0  0  0  0
  -15.9518   -2.4231  -11.9282 F   0  0  0  0  0  0  0  0  0  0  0  0
  -14.2845   -2.0037  -13.5817 C   0  0  0  0  0  0  0  0  0  0  0  0
  -13.5869   -1.0568  -14.3559 C   0  0  0  0  0  0  0  0  0  0  0  0
  -13.8883   -3.4440  -13.6609 C   0  0  0  0  0  0  0  0  0  0  0  0
  -12.7502   -3.7472  -13.3115 O   0  0  0  0  0  0  0  0  0  0  0  0
  -14.8187   -4.3092  -14.2270 N   0  0  0  0  0  0  0  0  0  0  0  0
  -15.5075   -3.8881  -14.8362 H   0  0  0  0  0  0  0  0  0  0  0  0
  -14.5675   -5.6922  -14.4100 C   0  0  0  0  0  0  0  0  0  0  0  0
  -14.2321   -6.0789  -15.7228 C   0  0  0  0  0  0  0  0  0  0  0  0
  -13.8055   -7.3841  -16.0079 C   0  0  0  0  0  0  0  0  0  0  0  0
  -13.7856   -8.3163  -14.9699 C   0  0  0  0  0  0  0  0  0  0  0  0
  -14.1883   -7.9535  -13.6793 C   0  0  0  0  0  0  0  0  0  0  0  0
  -14.6002   -6.6415  -13.3579 C   0  0  0  0  0  0  0  0  0  0  0  0
  -13.3349   -7.7817  -17.3823 C   0  0  0  0  0  0  0  0  0  0  0  0
  -11.9851   -7.9422  -17.4742 F   0  0  0  0  0  0  0  0  0  0  0  0
  -13.8779   -8.9596  -17.7987 F   0  0  0  0  0  0  0  0  0  0  0  0
  -13.6660   -6.8642  -18.3348 F   0  0  0  0  0  0  0  0  0  0  0  0
  -15.0714   -6.3599  -12.0725 N   0  0  0  0  0  0  0  0  0  0  0  0
  -16.3468   -5.6754  -11.8965 C   0  0  0  0  0  0  0  0  0  0  0  0
  -14.1420   -6.3122  -10.9336 C   0  0  0  0  0  0  0  0  0  0  0  0
  -14.0348   -4.9162  -10.3082 C   0  0  0  0  0  0  0  0  0  0  0  0
  -13.6338   -5.0258   -8.8268 C   0  0  0  0  0  0  0  0  0  0  0  0
  -12.2397   -4.6360   -8.5447 N   0  0  0  0  0  0  0  0  0  0  0  0
  -12.1269   -3.2395   -8.1202 C   0  0  0  0  0  0  0  0  0  0  0  0
  -11.6748   -5.5082   -7.5085 C   0  0  0  0  0  0  0  0  0  0  0  0
  -13.1618    1.2074  -14.9976 O   0  0  0  0  0  0  0  0  0  0  0  0
  -14.1369    1.6178  -17.1713 C   0  0  0  0  0  0  0  0  0  0  0  0
  -13.9852    1.4591  -18.5666 C   0  0  0  0  0  0  0  0  0  0  0  0
  -12.9058    0.7678  -19.1089 C   0  0  0  0  0  0  0  0  0  0  0  0
  -12.0016    0.2029  -18.2378 C   0  0  0  0  0  0  0  0  0  0  0  0
  -12.1096    0.2936  -16.8990 N   0  0  0  0  0  0  0  0  0  0  0  0
  -13.1398    1.0257  -16.3864 C   0  0  0  0  0  0  0  0  0  0  0  0
  -17.4161    2.3164  -15.7876 C   0  0  0  0  0  0  0  0  0  0  0  0
  -17.4705    3.6389  -15.6103 N   0  0  0  0  0  0  0  0  0  0  0  0
  -16.3989    4.3498  -16.0056 C   0  0  0  0  0  0  0  0  0  0  0  0
  -15.2645    3.7889  -16.5435 C   0  0  0  0  0  0  0  0  0  0  0  0
  -15.2711    2.4160  -16.6648 C   0  0  0  0  0  0  0  0  0  0  0  0
  -16.3446    1.6818  -16.2781 N   0  0  0  0  0  0  0  0  0  0  0  0
  -19.6169    2.3088  -14.7797 C   0  0  0  0  0  0  0  0  0  0  0  0
  -18.5643    1.6165  -15.4779 N   0  0  0  0  0  0  0  0  0  0  0  0
  -18.8158    1.0241  -16.2583 H   0  0  0  0  0  0  0  0  0  0  0  0
 43 44  1  0  0  0
 44 37  1  0  0  0
 44 45  1  0  0  0
 37 38  1  0  0  0
 37 42  2  0  0  0
 38 39  2  0  0  0
 39 40  1  0  0  0
 40 41  2  0  0  0
 41 31  1  0  0  0
 41 42  1  0  0  0
 31 32  1  0  0  0
 31 36  2  0  0  0
 32 33  2  0  0  0
 33 34  1  0  0  0
 34 35  2  0  0  0
 35 36  1  0  0  0
 36 30  1  0  0  0
 30  1  1  0  0  0
  1  2  1  0  0  0
  1  7  2  0  0  0
  2  3  2  0  0  0
  3  4  1  0  0  0
  4  5  1  0  0  0
  4  6  2  0  0  0
  6  8  1  0  0  0
  6  7  1  0  0  0
  8  9  2  0  0  0
  8 10  1  0  0  0
 10 12  1  0  0  0
 10 11  1  0  0  0
 12 13  1  0  0  0
 12 17  2  0  0  0
 13 14  2  0  0  0
 14 18  1  0  0  0
 14 15  1  0  0  0
 18 19  1  0  0  0
 18 20  1  0  0  0
 18 21  1  0  0  0
 15 16  2  0  0  0
 16 17  1  0  0  0
 17 22  1  0  0  0
 22 23  1  0  0  0
 22 24  1  0  0  0
 24 25  1  0  0  0
 25 26  1  0  0  0
 26 27  1  0  0  0
 27 28  1  0  0  0
 27 29  1  0  0  0
M  END
> <minimizedAffinity>
-7.47261

$$$$
