CHEMBL403706


 38 41  0  0  0  0  0  0  0  0999 V2000
  -12.8984    1.2286  -14.2656 C   0  0  0  0  0  0  0  0  0  0  0  0
  -13.2624   -0.1966  -13.9501 C   0  0  0  0  0  0  0  0  0  0  0  0
  -12.3007   -0.9578  -13.2531 C   0  0  0  0  0  0  0  0  0  0  0  0
  -12.5387   -2.2839  -12.9073 C   0  0  0  0  0  0  0  0  0  0  0  0
  -13.7598   -2.8664  -13.2237 C   0  0  0  0  0  0  0  0  0  0  0  0
  -14.7144   -2.1286  -13.9197 C   0  0  0  0  0  0  0  0  0  0  0  0
  -14.4924   -0.7946  -14.3048 C   0  0  0  0  0  0  0  0  0  0  0  0
  -14.0118   -4.2818  -12.8348 C   0  0  0  0  0  0  0  0  0  0  0  0
  -13.0621   -5.1435  -13.0279 N   0  0  0  0  0  0  0  0  0  0  0  0
  -13.2502   -6.4901  -12.6364 C   0  0  0  0  0  0  0  0  0  0  0  0
  -12.1907   -7.1605  -12.0100 C   0  0  0  0  0  0  0  0  0  0  0  0
  -11.0306   -6.4548  -11.6515 N   0  0  0  0  0  0  0  0  0  0  0  0
  -12.2302   -8.4527  -11.6542 N   0  0  0  0  0  0  0  0  0  0  0  0
  -13.3648   -9.0925  -11.9515 C   0  0  0  0  0  0  0  0  0  0  0  0
  -14.4493   -8.5711  -12.5496 N   0  0  0  0  0  0  0  0  0  0  0  0
  -14.3889   -7.2634  -12.8823 C   0  0  0  0  0  0  0  0  0  0  0  0
  -15.5242   -6.7981  -13.5256 N   0  0  0  0  0  0  0  0  0  0  0  0
  -16.1408   -5.5302  -13.1421 C   0  0  0  0  0  0  0  0  0  0  0  0
  -15.3374   -4.6508  -12.1975 C   0  0  0  0  0  0  0  0  0  0  0  0
  -10.7689   -5.8310  -12.4100 H   0  0  0  0  0  0  0  0  0  0  0  0
  -10.3179   -7.1167  -11.3707 H   0  0  0  0  0  0  0  0  0  0  0  0
  -16.1853   -7.5721  -13.5483 H   0  0  0  0  0  0  0  0  0  0  0  0
  -15.4755   -0.0751  -15.0454 N   0  0  0  0  0  0  0  0  0  0  0  0
  -16.6136    0.5318  -14.5175 C   0  0  0  0  0  0  0  0  0  0  0  0
  -16.9143    0.5716  -13.3290 O   0  0  0  0  0  0  0  0  0  0  0  0
  -17.4427    1.0529  -15.5046 N   0  0  0  0  0  0  0  0  0  0  0  0
  -15.3417   -0.0150  -16.0432 H   0  0  0  0  0  0  0  0  0  0  0  0
  -17.4314    0.5378  -16.3721 H   0  0  0  0  0  0  0  0  0  0  0  0
  -18.6824    1.6568  -15.1625 C   0  0  0  0  0  0  0  0  0  0  0  0
  -18.8155    3.0373  -15.3183 C   0  0  0  0  0  0  0  0  0  0  0  0
  -20.0423    3.6584  -15.0722 C   0  0  0  0  0  0  0  0  0  0  0  0
  -21.1285    2.9147  -14.6108 C   0  0  0  0  0  0  0  0  0  0  0  0
  -21.0024    1.5351  -14.3951 C   0  0  0  0  0  0  0  0  0  0  0  0
  -19.7753    0.9113  -14.6948 C   0  0  0  0  0  0  0  0  0  0  0  0
  -22.1569    0.7341  -13.8423 C   0  0  0  0  0  0  0  0  0  0  0  0
  -22.4285   -0.3925  -14.5634 F   0  0  0  0  0  0  0  0  0  0  0  0
  -21.9542    0.3127  -12.5642 F   0  0  0  0  0  0  0  0  0  0  0  0
  -23.3209    1.4430  -13.8243 F   0  0  0  0  0  0  0  0  0  0  0  0
  1  2  1  0  0  0
  2  3  1  0  0  0
  2  7  2  0  0  0
  3  4  2  0  0  0
  4  5  1  0  0  0
  5  8  1  0  0  0
  5  6  2  0  0  0
  8  9  2  0  0  0
  8 19  1  0  0  0
  9 10  1  0  0  0
 10 11  1  0  0  0
 10 16  2  0  0  0
 11 12  1  0  0  0
 11 13  2  0  0  0
 12 20  1  0  0  0
 12 21  1  0  0  0
 13 14  1  0  0  0
 14 15  2  0  0  0
 15 16  1  0  0  0
 16 17  1  0  0  0
 17 18  1  0  0  0
 17 22  1  0  0  0
 18 19  1  0  0  0
  6  7  1  0  0  0
  7 23  1  0  0  0
 23 24  1  0  0  0
 23 27  1  0  0  0
 24 25  2  0  0  0
 24 26  1  0  0  0
 26 29  1  0  0  0
 26 28  1  0  0  0
 29 30  1  0  0  0
 29 34  2  0  0  0
 30 31  2  0  0  0
 31 32  1  0  0  0
 32 33  2  0  0  0
 33 35  1  0  0  0
 33 34  1  0  0  0
 35 36  1  0  0  0
 35 37  1  0  0  0
 35 38  1  0  0  0
M  END
> <minimizedAffinity>
-10.41307

$$$$
