CHEMBL3589738


 34 37  0  0  0  0  0  0  0  0999 V2000
  -15.5651   -2.6767  -12.9811 C   0  0  0  0  0  0  0  0  0  0  0  0
  -14.9053   -3.8671  -13.2116 C   0  0  0  0  0  0  0  0  0  0  0  0
  -14.5953   -4.7019  -12.1713 C   0  0  0  0  0  0  0  0  0  0  0  0
  -14.6456   -4.2920  -10.8432 C   0  0  0  0  0  0  0  0  0  0  0  0
  -15.2665   -3.0718  -10.5837 C   0  0  0  0  0  0  0  0  0  0  0  0
  -15.7480   -2.2710  -11.6518 C   0  0  0  0  0  0  0  0  0  0  0  0
  -14.1036   -5.1478   -9.8480 N   0  0  0  0  0  0  0  0  0  0  0  0
  -12.7926   -5.1887   -9.8356 C   0  0  0  0  0  0  0  0  0  0  0  0
  -11.8515   -3.9524   -9.9123 C   0  0  0  0  0  0  0  0  0  0  0  0
  -12.0121   -2.8969   -9.3407 O   0  0  0  0  0  0  0  0  0  0  0  0
  -10.8639   -4.2875  -10.8185 N   0  0  0  0  0  0  0  0  0  0  0  0
  -11.0903   -5.5623  -11.3310 C   0  0  0  0  0  0  0  0  0  0  0  0
  -10.6976   -6.0024  -12.5841 C   0  0  0  0  0  0  0  0  0  0  0  0
  -11.3046   -7.1655  -13.0781 C   0  0  0  0  0  0  0  0  0  0  0  0
  -12.2184   -7.9001  -12.2952 C   0  0  0  0  0  0  0  0  0  0  0  0
  -12.6136   -7.4397  -11.0360 C   0  0  0  0  0  0  0  0  0  0  0  0
  -12.0685   -6.2451  -10.5945 C   0  0  0  0  0  0  0  0  0  0  0  0
  -10.2275   -3.6001  -11.1948 H   0  0  0  0  0  0  0  0  0  0  0  0
  -16.3289    0.0631  -12.9437 O   0  0  0  0  0  0  0  0  0  0  0  0
  -16.4628   -0.6108  -13.9606 C   0  0  0  0  0  0  0  0  0  0  0  0
  -16.0664   -1.9411  -14.0814 N   0  0  0  0  0  0  0  0  0  0  0  0
  -17.0477   -0.1142  -15.1022 N   0  0  0  0  0  0  0  0  0  0  0  0
  -15.8752   -2.2952  -15.0051 H   0  0  0  0  0  0  0  0  0  0  0  0
  -17.3250   -0.7879  -15.7999 H   0  0  0  0  0  0  0  0  0  0  0  0
  -17.5381    1.2104  -15.2339 C   0  0  0  0  0  0  0  0  0  0  0  0
  -16.7573    2.3021  -15.6382 C   0  0  0  0  0  0  0  0  0  0  0  0
  -17.2851    3.5869  -15.7028 C   0  0  0  0  0  0  0  0  0  0  0  0
  -18.6210    3.8038  -15.3864 C   0  0  0  0  0  0  0  0  0  0  0  0
  -19.4294    2.7243  -15.0066 C   0  0  0  0  0  0  0  0  0  0  0  0
  -18.8765    1.4311  -14.9308 C   0  0  0  0  0  0  0  0  0  0  0  0
  -20.8866    2.9209  -14.6753 C   0  0  0  0  0  0  0  0  0  0  0  0
  -21.5603    1.7569  -14.4904 F   0  0  0  0  0  0  0  0  0  0  0  0
  -21.0568    3.6450  -13.5366 F   0  0  0  0  0  0  0  0  0  0  0  0
  -21.5524    3.5947  -15.6520 F   0  0  0  0  0  0  0  0  0  0  0  0
 19 20  2  0  0  0
 20 21  1  0  0  0
 20 22  1  0  0  0
 21  1  1  0  0  0
 21 23  1  0  0  0
  1  2  1  0  0  0
  1  6  2  0  0  0
  2  3  2  0  0  0
  3  4  1  0  0  0
  4  7  1  0  0  0
  4  5  2  0  0  0
  7  8  2  0  0  0
  8  9  1  0  0  0
  8 17  1  0  0  0
  9 10  2  0  0  0
  9 11  1  0  0  0
 11 12  1  0  0  0
 11 18  1  0  0  0
 12 13  1  0  0  0
 12 17  2  0  0  0
 13 14  2  0  0  0
 14 15  1  0  0  0
 15 16  2  0  0  0
 16 17  1  0  0  0
  5  6  1  0  0  0
 22 25  1  0  0  0
 22 24  1  0  0  0
 25 26  1  0  0  0
 25 30  2  0  0  0
 26 27  2  0  0  0
 27 28  1  0  0  0
 28 29  2  0  0  0
 29 31  1  0  0  0
 29 30  1  0  0  0
 31 32  1  0  0  0
 31 33  1  0  0  0
 31 34  1  0  0  0
M  END
> <minimizedAffinity>
-9.80874

$$$$
