CHEMBL3642840


 39 43  0  0  0  0  0  0  0  0999 V2000
  -17.7165    2.2408  -15.1795 C   0  0  0  0  0  0  0  0  0  0  0  0
  -17.4264    3.4776  -15.7461 C   0  0  0  0  0  0  0  0  0  0  0  0
  -16.2832    3.6555  -16.5214 C   0  0  0  0  0  0  0  0  0  0  0  0
  -15.3796    2.6045  -16.7321 C   0  0  0  0  0  0  0  0  0  0  0  0
  -14.2026    2.8682  -17.6293 C   0  0  0  0  0  0  0  0  0  0  0  0
  -15.5960    1.3710  -16.0848 C   0  0  0  0  0  0  0  0  0  0  0  0
  -16.7812    1.2111  -15.3276 C   0  0  0  0  0  0  0  0  0  0  0  0
  -20.1838    2.1100  -15.0222 C   0  0  0  0  0  0  0  0  0  0  0  0
  -20.4432    2.4644  -16.1714 O   0  0  0  0  0  0  0  0  0  0  0  0
  -18.9200    1.9767  -14.4773 N   0  0  0  0  0  0  0  0  0  0  0  0
  -18.8322    1.4998  -13.5919 H   0  0  0  0  0  0  0  0  0  0  0  0
  -26.6861   -1.2385  -12.3166 C   0  0  0  0  0  0  0  0  0  0  0  0
  -27.3718   -0.5260  -11.5852 O   0  0  0  0  0  0  0  0  0  0  0  0
  -25.3511   -0.9696  -12.5832 N   0  0  0  0  0  0  0  0  0  0  0  0
  -24.4703   -1.8377  -13.3755 C   0  0  0  0  0  0  0  0  0  0  0  0
  -22.9786   -1.5722  -13.1876 C   0  0  0  0  0  0  0  0  0  0  0  0
  -22.7000   -0.1078  -13.3483 C   0  0  0  0  0  0  0  0  0  0  0  0
  -21.5696    0.3481  -14.0219 C   0  0  0  0  0  0  0  0  0  0  0  0
  -21.3410    1.7226  -14.1794 C   0  0  0  0  0  0  0  0  0  0  0  0
  -22.2392    2.6458  -13.6378 C   0  0  0  0  0  0  0  0  0  0  0  0
  -23.3665    2.1852  -12.9434 C   0  0  0  0  0  0  0  0  0  0  0  0
  -23.6098    0.8087  -12.8054 C   0  0  0  0  0  0  0  0  0  0  0  0
  -24.8026    0.2802  -12.0403 C   0  0  0  0  0  0  0  0  0  0  0  0
  -28.2833   -2.3149  -13.8512 C   0  0  0  0  0  0  0  0  0  0  0  0
  -27.2859   -2.4415  -12.9656 C   0  0  0  0  0  0  0  0  0  0  0  0
  -14.6596    0.3221  -16.1826 N   0  0  0  0  0  0  0  0  0  0  0  0
  -14.0759    0.2816  -17.0033 H   0  0  0  0  0  0  0  0  0  0  0  0
  -14.0645   -0.4190  -15.1590 C   0  0  0  0  0  0  0  0  0  0  0  0
  -12.8741   -0.0104  -14.7040 N   0  0  0  0  0  0  0  0  0  0  0  0
  -12.3525   -0.6987  -13.6693 C   0  0  0  0  0  0  0  0  0  0  0  0
  -12.9941   -1.7394  -13.0372 C   0  0  0  0  0  0  0  0  0  0  0  0
  -14.2290   -2.0777  -13.5424 C   0  0  0  0  0  0  0  0  0  0  0  0
  -14.7343   -1.4413  -14.6147 N   0  0  0  0  0  0  0  0  0  0  0  0
  -15.1352   -3.0769  -12.9526 C   0  0  0  0  0  0  0  0  0  0  0  0
  -15.6887   -4.1496  -13.6627 C   0  0  0  0  0  0  0  0  0  0  0  0
  -16.5099   -5.0764  -13.0165 C   0  0  0  0  0  0  0  0  0  0  0  0
  -16.7691   -4.9071  -11.6676 C   0  0  0  0  0  0  0  0  0  0  0  0
  -16.2820   -3.8850  -10.9418 N   0  0  0  0  0  0  0  0  0  0  0  0
  -15.4841   -3.0046  -11.5970 C   0  0  0  0  0  0  0  0  0  0  0  0
 24 25  2  0  0  0
 25 12  1  0  0  0
 12 13  2  0  0  0
 12 14  1  0  0  0
 14 15  1  0  0  0
 14 23  1  0  0  0
 15 16  1  0  0  0
 16 17  1  0  0  0
 17 18  1  0  0  0
 17 22  2  0  0  0
 18 19  2  0  0  0
 19  8  1  0  0  0
 19 20  1  0  0  0
  8  9  2  0  0  0
  8 10  1  0  0  0
 10  1  1  0  0  0
 10 11  1  0  0  0
  1  2  1  0  0  0
  1  7  2  0  0  0
  2  3  2  0  0  0
  3  4  1  0  0  0
  4  5  1  0  0  0
  4  6  2  0  0  0
  6 26  1  0  0  0
  6  7  1  0  0  0
 26 28  1  0  0  0
 26 27  1  0  0  0
 28 29  1  0  0  0
 28 33  2  0  0  0
 29 30  2  0  0  0
 30 31  1  0  0  0
 31 32  2  0  0  0
 32 34  1  0  0  0
 32 33  1  0  0  0
 34 35  1  0  0  0
 34 39  2  0  0  0
 35 36  2  0  0  0
 36 37  1  0  0  0
 37 38  2  0  0  0
 38 39  1  0  0  0
 20 21  2  0  0  0
 21 22  1  0  0  0
 22 23  1  0  0  0
M  END
> <minimizedAffinity>
-10.37629

$$$$
