CHEMBL3287309


 45 49  0  0  0  0  0  0  0  0999 V2000
  -28.1479   -2.5685   -5.8253 C   0  0  0  0  0  0  0  0  0  0  0  0
  -28.0486   -1.2947   -6.3868 C   0  0  0  0  0  0  0  0  0  0  0  0
  -27.8635   -1.1350   -7.7606 C   0  0  0  0  0  0  0  0  0  0  0  0
  -27.8283   -2.2393   -8.6092 C   0  0  0  0  0  0  0  0  0  0  0  0
  -27.9544   -3.5132   -8.0358 C   0  0  0  0  0  0  0  0  0  0  0  0
  -27.9188   -4.6022   -8.8199 F   0  0  0  0  0  0  0  0  0  0  0  0
  -28.1192   -3.6863   -6.6575 C   0  0  0  0  0  0  0  0  0  0  0  0
  -27.6996   -2.1235  -10.0193 N   0  0  0  0  0  0  0  0  0  0  0  0
  -26.5416   -1.8098  -10.7039 C   0  0  0  0  0  0  0  0  0  0  0  0
  -25.4247   -1.6290  -10.2389 O   0  0  0  0  0  0  0  0  0  0  0  0
  -28.5637   -2.2085  -10.5486 H   0  0  0  0  0  0  0  0  0  0  0  0
  -26.7075   -1.6490  -12.1809 C   0  0  0  0  0  0  0  0  0  0  0  0
  -28.0059   -1.0335  -12.7081 C   0  0  0  0  0  0  0  0  0  0  0  0
  -27.7842   -2.5056  -12.8464 C   0  0  0  0  0  0  0  0  0  0  0  0
  -25.4587   -1.2817  -12.9111 C   0  0  0  0  0  0  0  0  0  0  0  0
  -25.1020   -2.0311  -13.8116 O   0  0  0  0  0  0  0  0  0  0  0  0
  -24.8248   -0.1249  -12.4890 N   0  0  0  0  0  0  0  0  0  0  0  0
  -25.1704    0.3188  -11.6440 H   0  0  0  0  0  0  0  0  0  0  0  0
  -23.6618    0.4203  -13.0798 C   0  0  0  0  0  0  0  0  0  0  0  0
  -23.5201    1.7919  -13.3286 C   0  0  0  0  0  0  0  0  0  0  0  0
  -22.3980    2.2902  -13.9919 C   0  0  0  0  0  0  0  0  0  0  0  0
  -21.4023    1.4164  -14.3965 C   0  0  0  0  0  0  0  0  0  0  0  0
  -20.3433    1.8887  -15.0666 F   0  0  0  0  0  0  0  0  0  0  0  0
  -21.4922    0.0583  -14.1142 C   0  0  0  0  0  0  0  0  0  0  0  0
  -22.6157   -0.4406  -13.4403 C   0  0  0  0  0  0  0  0  0  0  0  0
  -28.3416   -2.7762   -4.4764 O   0  0  0  0  0  0  0  0  0  0  0  0
  -29.6450   -5.9746   -3.6172 C   0  0  0  0  0  0  0  0  0  0  0  0
  -30.9445   -5.7199   -3.3849 N   0  0  0  0  0  0  0  0  0  0  0  0
  -31.3611   -4.4492   -3.5193 C   0  0  0  0  0  0  0  0  0  0  0  0
  -30.5332   -3.4214   -3.8865 C   0  0  0  0  0  0  0  0  0  0  0  0
  -29.2282   -3.7844   -4.1103 C   0  0  0  0  0  0  0  0  0  0  0  0
  -28.7704   -5.0474   -4.0081 N   0  0  0  0  0  0  0  0  0  0  0  0
  -29.1355   -7.2634   -3.4324 N   0  0  0  0  0  0  0  0  0  0  0  0
  -28.4124   -7.1890   -2.7244 H   0  0  0  0  0  0  0  0  0  0  0  0
  -29.1469   -9.0640   -6.7043 C   0  0  0  0  0  0  0  0  0  0  0  0
  -28.0008   -9.8526   -6.5501 C   0  0  0  0  0  0  0  0  0  0  0  0
  -27.2339   -9.7655   -5.3873 C   0  0  0  0  0  0  0  0  0  0  0  0
  -27.6154   -8.9022   -4.3594 C   0  0  0  0  0  0  0  0  0  0  0  0
  -28.7833   -8.1459   -4.4686 C   0  0  0  0  0  0  0  0  0  0  0  0
  -29.5185   -8.2087   -5.6596 C   0  0  0  0  0  0  0  0  0  0  0  0
  -29.9585   -9.1043   -7.9684 C   0  0  0  0  0  0  0  0  0  0  0  0
  -30.8449  -11.6630   -8.8141 C   0  0  0  0  0  0  0  0  0  0  0  0
  -31.3249  -10.2512   -7.8425 S   0  0  0  0  0  0  0  0  0  0  0  0
  -32.5062   -9.6624   -8.4457 O   0  0  0  0  0  0  0  0  0  0  0  0
  -31.3702  -10.6972   -6.4594 O   0  0  0  0  0  0  0  0  0  0  0  0
 42 43  1  0  0  0
 43 44  2  0  0  0
 43 45  2  0  0  0
 43 41  1  0  0  0
 41 35  1  0  0  0
 35 36  1  0  0  0
 35 40  2  0  0  0
 36 37  2  0  0  0
 37 38  1  0  0  0
 38 39  2  0  0  0
 39 33  1  0  0  0
 39 40  1  0  0  0
 33 27  1  0  0  0
 33 34  1  0  0  0
 27 28  1  0  0  0
 27 32  2  0  0  0
 28 29  2  0  0  0
 29 30  1  0  0  0
 30 31  2  0  0  0
 31 26  1  0  0  0
 31 32  1  0  0  0
 26  1  1  0  0  0
  1  2  1  0  0  0
  1  7  2  0  0  0
  2  3  2  0  0  0
  3  4  1  0  0  0
  4  8  1  0  0  0
  4  5  2  0  0  0
  8  9  1  0  0  0
  8 11  1  0  0  0
  9 10  2  0  0  0
  9 12  1  0  0  0
 12 15  1  0  0  0
 12 13  1  0  0  0
 12 14  1  0  0  0
 15 16  2  0  0  0
 15 17  1  0  0  0
 17 19  1  0  0  0
 17 18  1  0  0  0
 19 20  1  0  0  0
 19 25  2  0  0  0
 20 21  2  0  0  0
 21 22  1  0  0  0
 22 23  1  0  0  0
 22 24  2  0  0  0
 24 25  1  0  0  0
 13 14  1  0  0  0
  5  6  1  0  0  0
  5  7  1  0  0  0
M  END
> <minimizedAffinity>
-10.07979

$$$$
