CHEMBL3984477


 45 47  0  0  0  0  0  0  0  0999 V2000
  -15.0846   -1.6769  -13.3747 C   0  0  0  0  0  0  0  0  0  0  0  0
  -15.9567   -2.7510  -13.4890 C   0  0  0  0  0  0  0  0  0  0  0  0
  -15.4806   -4.0184  -13.8158 C   0  0  0  0  0  0  0  0  0  0  0  0
  -14.1342   -4.2397  -14.1164 C   0  0  0  0  0  0  0  0  0  0  0  0
  -13.2752   -3.1281  -14.1242 C   0  0  0  0  0  0  0  0  0  0  0  0
  -13.7514   -1.8535  -13.7503 C   0  0  0  0  0  0  0  0  0  0  0  0
  -13.6188   -5.5369  -14.3984 N   0  0  0  0  0  0  0  0  0  0  0  0
  -13.4771   -6.0849  -15.6613 C   0  0  0  0  0  0  0  0  0  0  0  0
  -13.7373   -5.5093  -16.7203 O   0  0  0  0  0  0  0  0  0  0  0  0
  -13.0379   -7.4008  -15.6459 N   0  0  0  0  0  0  0  0  0  0  0  0
  -13.3197   -6.0904  -13.6071 H   0  0  0  0  0  0  0  0  0  0  0  0
  -13.3874   -7.9433  -14.8706 H   0  0  0  0  0  0  0  0  0  0  0  0
  -12.8814   -8.0942  -16.8772 C   0  0  0  0  0  0  0  0  0  0  0  0
  -11.9725   -7.6122  -17.8135 C   0  0  0  0  0  0  0  0  0  0  0  0
  -11.7605   -8.3181  -19.0005 C   0  0  0  0  0  0  0  0  0  0  0  0
  -12.4685   -9.4965  -19.2796 C   0  0  0  0  0  0  0  0  0  0  0  0
  -12.1397  -10.2395  -20.8020 Cl  0  0  0  0  0  0  0  0  0  0  0  0
  -13.3835  -10.0042  -18.3536 C   0  0  0  0  0  0  0  0  0  0  0  0
  -13.5837   -9.2784  -17.1537 C   0  0  0  0  0  0  0  0  0  0  0  0
  -14.1537  -11.2898  -18.5340 C   0  0  0  0  0  0  0  0  0  0  0  0
  -14.9562  -11.6649  -17.5026 F   0  0  0  0  0  0  0  0  0  0  0  0
  -14.9743  -11.2449  -19.6235 F   0  0  0  0  0  0  0  0  0  0  0  0
  -13.3259  -12.3539  -18.7483 F   0  0  0  0  0  0  0  0  0  0  0  0
  -15.4759   -0.4273  -12.9413 O   0  0  0  0  0  0  0  0  0  0  0  0
  -17.0373    2.0056  -15.2537 C   0  0  0  0  0  0  0  0  0  0  0  0
  -16.9461    1.0142  -14.2814 C   0  0  0  0  0  0  0  0  0  0  0  0
  -15.6874    0.5780  -13.8689 C   0  0  0  0  0  0  0  0  0  0  0  0
  -14.5613    1.2150  -14.3701 C   0  0  0  0  0  0  0  0  0  0  0  0
  -14.7415    2.2255  -15.3053 C   0  0  0  0  0  0  0  0  0  0  0  0
  -15.9463    2.6247  -15.7681 N   0  0  0  0  0  0  0  0  0  0  0  0
  -18.4011    2.4850  -15.7143 C   0  0  0  0  0  0  0  0  0  0  0  0
  -18.9970    3.5002  -14.8274 N   0  0  0  0  0  0  0  0  0  0  0  0
  -18.6208    3.3667  -13.8899 H   0  0  0  0  0  0  0  0  0  0  0  0
  -20.4539    3.3559  -14.7872 C   0  0  0  0  0  0  0  0  0  0  0  0
  -20.8445    1.9309  -15.1659 C   0  0  0  0  0  0  0  0  0  0  0  0
  -21.0920    1.1049  -13.9045 C   0  0  0  0  0  0  0  0  0  0  0  0
  -22.5470    0.6546  -13.8055 C   0  0  0  0  0  0  0  0  0  0  0  0
  -22.6516   -0.6672  -13.0452 C   0  0  0  0  0  0  0  0  0  0  0  0
  -23.6552   -0.5806  -11.9001 C   0  0  0  0  0  0  0  0  0  0  0  0
  -25.3025   -1.7676  -13.2472 O   0  0  0  0  0  0  0  0  0  0  0  0
  -24.8761   -1.4435  -12.1413 C   0  0  0  0  0  0  0  0  0  0  0  0
  -25.4855   -1.8465  -10.9781 N   0  0  0  0  0  0  0  0  0  0  0  0
  -26.6188   -2.6789  -11.1024 O   0  0  0  0  0  0  0  0  0  0  0  0
  -25.1582   -1.6372  -10.0444 H   0  0  0  0  0  0  0  0  0  0  0  0
  -26.6976   -2.7815  -12.0728 H   0  0  0  0  0  0  0  0  0  0  0  0
 40 41  2  0  0  0
 41 39  1  0  0  0
 41 42  1  0  0  0
 39 38  1  0  0  0
 38 37  1  0  0  0
 37 36  1  0  0  0
 36 35  1  0  0  0
 35 34  1  0  0  0
 34 32  1  0  0  0
 32 31  1  0  0  0
 32 33  1  0  0  0
 31 25  1  0  0  0
 25 26  1  0  0  0
 25 30  2  0  0  0
 26 27  2  0  0  0
 27 24  1  0  0  0
 27 28  1  0  0  0
 24  1  1  0  0  0
  1  2  1  0  0  0
  1  6  2  0  0  0
  2  3  2  0  0  0
  3  4  1  0  0  0
  4  7  1  0  0  0
  4  5  2  0  0  0
  7  8  1  0  0  0
  7 11  1  0  0  0
  8  9  2  0  0  0
  8 10  1  0  0  0
 10 13  1  0  0  0
 10 12  1  0  0  0
 13 14  1  0  0  0
 13 19  2  0  0  0
 14 15  2  0  0  0
 15 16  1  0  0  0
 16 17  1  0  0  0
 16 18  2  0  0  0
 18 20  1  0  0  0
 18 19  1  0  0  0
 20 21  1  0  0  0
 20 22  1  0  0  0
 20 23  1  0  0  0
  5  6  1  0  0  0
 28 29  2  0  0  0
 29 30  1  0  0  0
 42 43  1  0  0  0
 42 44  1  0  0  0
 43 45  1  0  0  0
M  END
> <minimizedAffinity>
-8.11351

$$$$
