CHEMBL498266


 40 43  0  0  0  0  0  0  0  0999 V2000
  -15.3084   -3.9872  -12.4143 C   0  0  0  0  0  0  0  0  0  0  0  0
  -14.9987   -2.6235  -12.2137 C   0  0  0  0  0  0  0  0  0  0  0  0
  -14.3305   -1.8747  -13.2001 C   0  0  0  0  0  0  0  0  0  0  0  0
  -13.9686   -2.5016  -14.3805 C   0  0  0  0  0  0  0  0  0  0  0  0
  -14.2877   -3.8545  -14.5617 C   0  0  0  0  0  0  0  0  0  0  0  0
  -14.9553   -4.6116  -13.6165 C   0  0  0  0  0  0  0  0  0  0  0  0
  -13.8273   -4.3107  -15.7919 N   0  0  0  0  0  0  0  0  0  0  0  0
  -13.1790   -3.3071  -16.4878 C   0  0  0  0  0  0  0  0  0  0  0  0
  -12.5497   -3.4245  -17.5248 O   0  0  0  0  0  0  0  0  0  0  0  0
  -13.3193   -2.0694  -15.6332 C   0  0  0  0  0  0  0  0  0  0  0  0
  -12.9123   -0.8653  -16.0910 C   0  0  0  0  0  0  0  0  0  0  0  0
  -13.8714   -5.2638  -16.1210 H   0  0  0  0  0  0  0  0  0  0  0  0
  -12.7391    0.2734  -15.1621 C   0  0  0  0  0  0  0  0  0  0  0  0
  -13.8248    1.1428  -14.9571 C   0  0  0  0  0  0  0  0  0  0  0  0
  -13.7307    2.1977  -14.0492 C   0  0  0  0  0  0  0  0  0  0  0  0
  -12.5503    2.3950  -13.3361 C   0  0  0  0  0  0  0  0  0  0  0  0
  -11.4633    1.5445  -13.5391 C   0  0  0  0  0  0  0  0  0  0  0  0
  -11.5561    0.4885  -14.4483 C   0  0  0  0  0  0  0  0  0  0  0  0
  -15.9803   -4.8203  -11.3775 C   0  0  0  0  0  0  0  0  0  0  0  0
  -17.0735   -5.3398  -11.5453 O   0  0  0  0  0  0  0  0  0  0  0  0
  -14.0598   -5.7804  -10.4575 C   0  0  0  0  0  0  0  0  0  0  0  0
  -15.2044   -4.9419  -10.2729 O   0  0  0  0  0  0  0  0  0  0  0  0
  -12.4562   -0.5880  -17.3892 N   0  0  0  0  0  0  0  0  0  0  0  0
  -12.9727   -1.1837  -18.0510 H   0  0  0  0  0  0  0  0  0  0  0  0
  -12.5531    0.7249  -17.9636 C   0  0  0  0  0  0  0  0  0  0  0  0
  -11.5516    1.6982  -17.8617 C   0  0  0  0  0  0  0  0  0  0  0  0
  -11.7490    2.9924  -18.3626 C   0  0  0  0  0  0  0  0  0  0  0  0
  -12.9540    3.3362  -18.9739 C   0  0  0  0  0  0  0  0  0  0  0  0
  -13.9115    2.3451  -19.1930 C   0  0  0  0  0  0  0  0  0  0  0  0
  -13.7039    1.0484  -18.7000 C   0  0  0  0  0  0  0  0  0  0  0  0
  -13.2022    4.7124  -19.3032 N   0  0  0  0  0  0  0  0  0  0  0  0
  -14.6720    5.4134  -18.8387 S   0  0  0  0  0  0  0  0  0  0  0  0
  -14.1846    7.0935  -18.5012 C   0  0  0  0  0  0  0  0  0  0  0  0
  -15.5365    5.4459  -20.0031 O   0  0  0  0  0  0  0  0  0  0  0  0
  -15.1220    4.8192  -17.6010 O   0  0  0  0  0  0  0  0  0  0  0  0
  -12.0368    5.6056  -19.5595 C   0  0  0  0  0  0  0  0  0  0  0  0
  -11.8341    5.8099  -21.0800 C   0  0  0  0  0  0  0  0  0  0  0  0
  -11.7017    7.2210  -21.5104 N   0  0  0  0  0  0  0  0  0  0  0  0
  -13.0224    7.7392  -21.8909 C   0  0  0  0  0  0  0  0  0  0  0  0
  -11.1454    8.0686  -20.4507 C   0  0  0  0  0  0  0  0  0  0  0  0
 21 22  1  0  0  0
 22 19  1  0  0  0
 19 20  2  0  0  0
 19  1  1  0  0  0
  1  2  1  0  0  0
  1  6  2  0  0  0
  2  3  2  0  0  0
  3  4  1  0  0  0
  4  5  2  0  0  0
  4 10  1  0  0  0
  5  6  1  0  0  0
  5  7  1  0  0  0
  7  8  1  0  0  0
  7 12  1  0  0  0
  8  9  2  0  0  0
  8 10  1  0  0  0
 10 11  2  0  0  0
 11 23  1  0  0  0
 11 13  1  0  0  0
 23 25  1  0  0  0
 23 24  1  0  0  0
 25 26  1  0  0  0
 25 30  2  0  0  0
 26 27  2  0  0  0
 27 28  1  0  0  0
 28 31  1  0  0  0
 28 29  2  0  0  0
 31 36  1  0  0  0
 31 32  1  0  0  0
 36 37  1  0  0  0
 37 38  1  0  0  0
 38 39  1  0  0  0
 38 40  1  0  0  0
 32 33  1  0  0  0
 32 34  2  0  0  0
 32 35  2  0  0  0
 29 30  1  0  0  0
 13 14  1  0  0  0
 13 18  2  0  0  0
 14 15  2  0  0  0
 15 16  1  0  0  0
 16 17  2  0  0  0
 17 18  1  0  0  0
M  END
> <minimizedAffinity>
-5.33313

$$$$
