CHEMBL189947


 32 35  0  0  0  0  0  0  0  0999 V2000
  -29.2469   -3.2109   -6.1579 C   0  0  0  0  0  0  0  0  0  0  0  0
  -29.0675   -1.8948   -5.7318 C   0  0  0  0  0  0  0  0  0  0  0  0
  -28.3619   -0.9542   -6.4044 N   0  0  0  0  0  0  0  0  0  0  0  0
  -27.8428   -1.3312   -7.5947 C   0  0  0  0  0  0  0  0  0  0  0  0
  -27.9820   -2.5979   -8.1621 C   0  0  0  0  0  0  0  0  0  0  0  0
  -28.6795   -3.5399   -7.4010 C   0  0  0  0  0  0  0  0  0  0  0  0
  -30.4463   -6.4188   -4.9080 C   0  0  0  0  0  0  0  0  0  0  0  0
  -31.3671   -6.0119   -3.9409 C   0  0  0  0  0  0  0  0  0  0  0  0
  -31.6111   -4.7158   -3.6312 N   0  0  0  0  0  0  0  0  0  0  0  0
  -30.9154   -3.8166   -4.3658 C   0  0  0  0  0  0  0  0  0  0  0  0
  -30.0062   -4.1781   -5.3570 C   0  0  0  0  0  0  0  0  0  0  0  0
  -29.7771   -5.4881   -5.6286 N   0  0  0  0  0  0  0  0  0  0  0  0
  -30.2932   -7.7944   -5.2102 N   0  0  0  0  0  0  0  0  0  0  0  0
  -29.6271   -8.2199   -4.5707 H   0  0  0  0  0  0  0  0  0  0  0  0
  -29.2481  -10.1500  -10.5625 Cl  0  0  0  0  0  0  0  0  0  0  0  0
  -29.5418   -9.4596   -9.0144 C   0  0  0  0  0  0  0  0  0  0  0  0
  -28.4709   -9.0294   -8.2360 C   0  0  0  0  0  0  0  0  0  0  0  0
  -28.7124   -8.4576   -6.9848 C   0  0  0  0  0  0  0  0  0  0  0  0
  -30.0221   -8.2908   -6.5112 C   0  0  0  0  0  0  0  0  0  0  0  0
  -31.0829   -8.7753   -7.2855 C   0  0  0  0  0  0  0  0  0  0  0  0
  -30.8463   -9.3413   -8.5423 C   0  0  0  0  0  0  0  0  0  0  0  0
  -27.4856   -2.8455   -9.4390 N   0  0  0  0  0  0  0  0  0  0  0  0
  -28.1389   -3.3652  -10.0229 H   0  0  0  0  0  0  0  0  0  0  0  0
  -26.6990   -1.8412  -10.1383 C   0  0  0  0  0  0  0  0  0  0  0  0
  -27.4791   -1.3563  -11.3583 C   0  0  0  0  0  0  0  0  0  0  0  0
  -26.7371   -1.7122  -12.6468 C   0  0  0  0  0  0  0  0  0  0  0  0
  -25.3219   -1.2019  -12.6431 C   0  0  0  0  0  0  0  0  0  0  0  0
  -25.0289    0.0954  -12.2030 C   0  0  0  0  0  0  0  0  0  0  0  0
  -23.7112    0.5177  -12.2226 C   0  0  0  0  0  0  0  0  0  0  0  0
  -22.6793   -0.2436  -12.6458 N   0  0  0  0  0  0  0  0  0  0  0  0
  -22.9840   -1.4878  -13.0742 C   0  0  0  0  0  0  0  0  0  0  0  0
  -24.2684   -2.0045  -13.0953 C   0  0  0  0  0  0  0  0  0  0  0  0
 15 16  1  0  0  0
 16 17  1  0  0  0
 16 21  2  0  0  0
 17 18  2  0  0  0
 18 19  1  0  0  0
 19 13  1  0  0  0
 19 20  2  0  0  0
 13  7  1  0  0  0
 13 14  1  0  0  0
  7  8  1  0  0  0
  7 12  2  0  0  0
  8  9  2  0  0  0
  9 10  1  0  0  0
 10 11  2  0  0  0
 11  1  1  0  0  0
 11 12  1  0  0  0
  1  2  1  0  0  0
  1  6  2  0  0  0
  2  3  2  0  0  0
  3  4  1  0  0  0
  4  5  2  0  0  0
  5 22  1  0  0  0
  5  6  1  0  0  0
 22 24  1  0  0  0
 22 23  1  0  0  0
 24 25  1  0  0  0
 25 26  1  0  0  0
 26 27  1  0  0  0
 27 28  1  0  0  0
 27 32  2  0  0  0
 28 29  2  0  0  0
 29 30  1  0  0  0
 30 31  2  0  0  0
 31 32  1  0  0  0
 20 21  1  0  0  0
M  END
> <minimizedAffinity>
-9.32251

$$$$
