CHEMBL206123


 32 35  0  0  0  0  0  0  0  0999 V2000
  -29.9807   -5.9436   -6.7329 C   0  0  0  0  0  0  0  0  0  0  0  0
  -29.0317   -6.2701   -5.8806 N   0  0  0  0  0  0  0  0  0  0  0  0
  -28.3270   -5.1211   -5.5934 N   0  0  0  0  0  0  0  0  0  0  0  0
  -28.9144   -4.1383   -6.2508 C   0  0  0  0  0  0  0  0  0  0  0  0
  -29.9810   -4.5995   -7.0008 O   0  0  0  0  0  0  0  0  0  0  0  0
  -28.6514   -2.7011   -6.2631 C   0  0  0  0  0  0  0  0  0  0  0  0
  -28.9820   -1.9404   -5.1191 C   0  0  0  0  0  0  0  0  0  0  0  0
  -28.6870   -0.5822   -5.0438 C   0  0  0  0  0  0  0  0  0  0  0  0
  -28.0765    0.0043   -6.1257 C   0  0  0  0  0  0  0  0  0  0  0  0
  -27.7775   -0.6660   -7.2560 N   0  0  0  0  0  0  0  0  0  0  0  0
  -28.0441   -2.0053   -7.3296 C   0  0  0  0  0  0  0  0  0  0  0  0
  -27.6844   -2.6223   -8.6750 C   0  0  0  0  0  0  0  0  0  0  0  0
  -27.9353   -1.6606   -9.8583 C   0  0  0  0  0  0  0  0  0  0  0  0
  -26.9450   -1.6771  -11.0044 C   0  0  0  0  0  0  0  0  0  0  0  0
  -27.4315   -1.7846  -12.3151 C   0  0  0  0  0  0  0  0  0  0  0  0
  -26.5468   -1.6865  -13.3784 C   0  0  0  0  0  0  0  0  0  0  0  0
  -25.2214   -1.4891  -13.2310 N   0  0  0  0  0  0  0  0  0  0  0  0
  -24.7685   -1.3821  -11.9636 C   0  0  0  0  0  0  0  0  0  0  0  0
  -25.5755   -1.4665  -10.8352 C   0  0  0  0  0  0  0  0  0  0  0  0
  -30.9147   -6.7470   -7.2740 N   0  0  0  0  0  0  0  0  0  0  0  0
  -31.8675   -6.5120   -7.0198 H   0  0  0  0  0  0  0  0  0  0  0  0
  -29.3901   -9.7475   -8.8892 C   0  0  0  0  0  0  0  0  0  0  0  0
  -30.3540  -10.7131   -8.6231 C   0  0  0  0  0  0  0  0  0  0  0  0
  -31.5438  -10.3603   -7.9936 C   0  0  0  0  0  0  0  0  0  0  0  0
  -31.7563   -9.0537   -7.5692 C   0  0  0  0  0  0  0  0  0  0  0  0
  -30.7878   -8.0618   -7.7679 C   0  0  0  0  0  0  0  0  0  0  0  0
  -29.6034   -8.4341   -8.4355 C   0  0  0  0  0  0  0  0  0  0  0  0
  -28.2067   -9.9645   -9.5249 O   0  0  0  0  0  0  0  0  0  0  0  0
  -27.1065  -10.0497  -11.5846 F   0  0  0  0  0  0  0  0  0  0  0  0
  -28.1932  -10.4178  -10.8755 C   0  0  0  0  0  0  0  0  0  0  0  0
  -29.2962   -9.9684  -11.5114 F   0  0  0  0  0  0  0  0  0  0  0  0
  -28.2305  -11.7702  -10.8714 F   0  0  0  0  0  0  0  0  0  0  0  0
 29 30  1  0  0  0
 30 31  1  0  0  0
 30 32  1  0  0  0
 30 28  1  0  0  0
 28 22  1  0  0  0
 22 23  1  0  0  0
 22 27  2  0  0  0
 23 24  2  0  0  0
 24 25  1  0  0  0
 25 26  2  0  0  0
 26 20  1  0  0  0
 26 27  1  0  0  0
 20  1  1  0  0  0
 20 21  1  0  0  0
  1  2  2  0  0  0
  1  5  1  0  0  0
  2  3  1  0  0  0
  3  4  2  0  0  0
  4  6  1  0  0  0
  4  5  1  0  0  0
  6  7  1  0  0  0
  6 11  2  0  0  0
  7  8  2  0  0  0
  8  9  1  0  0  0
  9 10  2  0  0  0
 10 11  1  0  0  0
 11 12  1  0  0  0
 12 13  1  0  0  0
 13 14  1  0  0  0
 14 15  1  0  0  0
 14 19  2  0  0  0
 15 16  2  0  0  0
 16 17  1  0  0  0
 17 18  2  0  0  0
 18 19  1  0  0  0
M  END
> <minimizedAffinity>
-9.29988

$$$$
