CHEMBL1085511


 40 44  0  0  0  0  0  0  0  0999 V2000
  -26.3053   -1.5004  -10.8122 C   0  0  0  0  0  0  0  0  0  0  0  0
  -24.9725   -0.8541  -10.6088 C   0  0  0  0  0  0  0  0  0  0  0  0
  -24.1472   -0.4615  -11.5298 N   0  0  0  0  0  0  0  0  0  0  0  0
  -24.5441   -0.6706  -12.8257 C   0  0  0  0  0  0  0  0  0  0  0  0
  -23.9368   -0.4022  -14.0416 C   0  0  0  0  0  0  0  0  0  0  0  0
  -24.8804   -0.8297  -15.0004 C   0  0  0  0  0  0  0  0  0  0  0  0
  -25.9906   -1.3386  -14.4673 N   0  0  0  0  0  0  0  0  0  0  0  0
  -25.7726   -1.2756  -13.1207 N   0  0  0  0  0  0  0  0  0  0  0  0
  -26.6584   -1.7205  -12.0973 C   0  0  0  0  0  0  0  0  0  0  0  0
  -27.8347   -2.3546  -12.5085 N   0  0  0  0  0  0  0  0  0  0  0  0
  -28.0665   -2.1216  -13.4771 H   0  0  0  0  0  0  0  0  0  0  0  0
  -28.6067   -2.2814  -11.8562 H   0  0  0  0  0  0  0  0  0  0  0  0
  -28.4380   -2.7172   -7.3016 C   0  0  0  0  0  0  0  0  0  0  0  0
  -28.0961   -3.6390   -8.2955 C   0  0  0  0  0  0  0  0  0  0  0  0
  -27.4331   -3.2346   -9.4565 C   0  0  0  0  0  0  0  0  0  0  0  0
  -27.0971   -1.8948   -9.6430 C   0  0  0  0  0  0  0  0  0  0  0  0
  -27.4802   -0.9549   -8.6792 C   0  0  0  0  0  0  0  0  0  0  0  0
  -28.1569   -1.3632   -7.5196 C   0  0  0  0  0  0  0  0  0  0  0  0
  -28.4582   -3.3057   -4.8892 C   0  0  0  0  0  0  0  0  0  0  0  0
  -27.2950   -3.0639   -4.6039 O   0  0  0  0  0  0  0  0  0  0  0  0
  -29.0731   -3.0948   -6.0982 N   0  0  0  0  0  0  0  0  0  0  0  0
  -30.0741   -3.2266   -6.0970 H   0  0  0  0  0  0  0  0  0  0  0  0
  -29.3405   -3.8738   -4.0175 O   0  0  0  0  0  0  0  0  0  0  0  0
  -29.2432   -5.3082   -3.9209 C   0  0  0  0  0  0  0  0  0  0  0  0
  -31.7468   -5.0835   -3.5983 C   0  0  0  0  0  0  0  0  0  0  0  0
  -30.6042   -6.0117   -4.0095 C   0  0  0  0  0  0  0  0  0  0  0  0
  -30.8283   -6.5073   -5.4416 C   0  0  0  0  0  0  0  0  0  0  0  0
  -22.6175    0.1861  -14.2361 C   0  0  0  0  0  0  0  0  0  0  0  0
  -21.5639   -0.5557  -14.7692 C   0  0  0  0  0  0  0  0  0  0  0  0
  -20.3130    0.0308  -14.9838 C   0  0  0  0  0  0  0  0  0  0  0  0
  -20.0556    1.3753  -14.6826 C   0  0  0  0  0  0  0  0  0  0  0  0
  -21.1223    2.1167  -14.1647 C   0  0  0  0  0  0  0  0  0  0  0  0
  -22.3820    1.5339  -13.9377 C   0  0  0  0  0  0  0  0  0  0  0  0
  -18.8138    1.9133  -14.9622 N   0  0  0  0  0  0  0  0  0  0  0  0
  -18.5173    3.3450  -14.8141 C   0  0  0  0  0  0  0  0  0  0  0  0
  -17.4302    3.7432  -15.8474 C   0  0  0  0  0  0  0  0  0  0  0  0
  -16.2001    2.9229  -15.7310 N   0  0  0  0  0  0  0  0  0  0  0  0
  -15.2249    3.3003  -16.7496 C   0  0  0  0  0  0  0  0  0  0  0  0
  -16.5608    1.4921  -15.8653 C   0  0  0  0  0  0  0  0  0  0  0  0
  -17.6192    1.0573  -14.8280 C   0  0  0  0  0  0  0  0  0  0  0  0
 25 26  1  0  0  0
 26 27  1  0  0  0
 26 24  1  0  0  0
 24 23  1  0  0  0
 23 19  1  0  0  0
 19 20  2  0  0  0
 19 21  1  0  0  0
 21 13  1  0  0  0
 21 22  1  0  0  0
 13 14  1  0  0  0
 13 18  2  0  0  0
 14 15  2  0  0  0
 15 16  1  0  0  0
 16  1  1  0  0  0
 16 17  2  0  0  0
  1  2  1  0  0  0
  1  9  2  0  0  0
  2  3  2  0  0  0
  3  4  1  0  0  0
  4  5  2  0  0  0
  4  8  1  0  0  0
  5 28  1  0  0  0
  5  6  1  0  0  0
 28 29  1  0  0  0
 28 33  2  0  0  0
 29 30  2  0  0  0
 30 31  1  0  0  0
 31 34  1  0  0  0
 31 32  2  0  0  0
 34 35  1  0  0  0
 34 40  1  0  0  0
 35 36  1  0  0  0
 36 37  1  0  0  0
 37 38  1  0  0  0
 37 39  1  0  0  0
 39 40  1  0  0  0
 32 33  1  0  0  0
  6  7  2  0  0  0
  7  8  1  0  0  0
  8  9  1  0  0  0
  9 10  1  0  0  0
 10 11  1  0  0  0
 10 12  1  0  0  0
 17 18  1  0  0  0
M  END
> <minimizedAffinity>
-9.74233

$$$$
