CHEMBL3648120


 31 32  0  0  0  0  0  0  0  0999 V2000
  -15.8098   -0.0369  -13.7744 C   0  0  0  0  0  0  0  0  0  0  0  0
  -14.7582    0.7294  -14.0855 N   0  0  0  0  0  0  0  0  0  0  0  0
  -15.0104    1.7940  -14.8716 C   0  0  0  0  0  0  0  0  0  0  0  0
  -16.2658    2.1236  -15.3304 C   0  0  0  0  0  0  0  0  0  0  0  0
  -16.5350    3.7426  -16.2627 Br  0  0  0  0  0  0  0  0  0  0  0  0
  -17.2673    1.2021  -15.0764 C   0  0  0  0  0  0  0  0  0  0  0  0
  -17.0345    0.1249  -14.3082 N   0  0  0  0  0  0  0  0  0  0  0  0
  -15.6181   -0.9677  -12.7527 N   0  0  0  0  0  0  0  0  0  0  0  0
  -15.1448   -0.5304  -11.9752 H   0  0  0  0  0  0  0  0  0  0  0  0
  -15.0479   -5.1009  -13.2159 C   0  0  0  0  0  0  0  0  0  0  0  0
  -14.3811   -4.2081  -14.0600 C   0  0  0  0  0  0  0  0  0  0  0  0
  -14.5614   -2.8441  -13.9008 C   0  0  0  0  0  0  0  0  0  0  0  0
  -15.4102   -2.3420  -12.9037 C   0  0  0  0  0  0  0  0  0  0  0  0
  -16.0266   -3.2458  -12.0229 C   0  0  0  0  0  0  0  0  0  0  0  0
  -15.8695   -4.6258  -12.1900 C   0  0  0  0  0  0  0  0  0  0  0  0
  -14.9128   -6.8538  -13.5302 S   0  0  0  0  0  0  0  0  0  0  0  0
  -16.1120   -7.2158  -14.4292 N   0  0  0  0  0  0  0  0  0  0  0  0
  -14.6495   -7.4884  -12.2561 O   0  0  0  0  0  0  0  0  0  0  0  0
  -16.1697   -8.2241  -14.5730 H   0  0  0  0  0  0  0  0  0  0  0  0
  -13.1660   -8.3844  -14.9740 C   0  0  0  0  0  0  0  0  0  0  0  0
  -13.4210   -6.9646  -14.5039 C   0  0  0  0  0  0  0  0  0  0  0  0
  -18.5540    1.3958  -15.5982 N   0  0  0  0  0  0  0  0  0  0  0  0
  -18.5266    2.0840  -16.3532 H   0  0  0  0  0  0  0  0  0  0  0  0
  -19.6645    1.6634  -14.6565 C   0  0  0  0  0  0  0  0  0  0  0  0
  -20.0951    3.1455  -14.8331 C   0  0  0  0  0  0  0  0  0  0  0  0
  -21.5616    3.4113  -14.5142 C   0  0  0  0  0  0  0  0  0  0  0  0
  -19.3009    3.9579  -13.9413 O   0  0  0  0  0  0  0  0  0  0  0  0
  -19.4448    3.6212  -13.0379 H   0  0  0  0  0  0  0  0  0  0  0  0
  -20.8184    0.6582  -14.8915 C   0  0  0  0  0  0  0  0  0  0  0  0
  -21.6042    0.3328  -13.7362 O   0  0  0  0  0  0  0  0  0  0  0  0
  -22.9363   -0.0657  -14.0395 C   0  0  0  0  0  0  0  0  0  0  0  0
 20 21  1  0  0  0
 21 16  1  0  0  0
 16 17  2  0  0  0
 16 18  2  0  0  0
 16 10  1  0  0  0
 17 19  1  0  0  0
 10 11  1  0  0  0
 10 15  2  0  0  0
 11 12  2  0  0  0
 12 13  1  0  0  0
 13  8  1  0  0  0
 13 14  2  0  0  0
  8  1  1  0  0  0
  8  9  1  0  0  0
  1  2  1  0  0  0
  1  7  2  0  0  0
  2  3  2  0  0  0
  3  4  1  0  0  0
  4  5  1  0  0  0
  4  6  2  0  0  0
  6 22  1  0  0  0
  6  7  1  0  0  0
 22 23  1  0  0  0
 24 25  1  0  0  0
 24 29  1  0  0  0
 24 22  1  0  0  0
 29 30  1  0  0  0
 30 31  1  0  0  0
 25 26  1  0  0  0
 25 27  1  0  0  0
 27 28  1  0  0  0
 14 15  1  0  0  0
M  END
> <minimizedAffinity>
-7.26678

$$$$
