CHEMBL1082503


 33 39  0  0  0  0  0  0  0  0999 V2000
  -30.9570    2.1326   -4.9809 C   0  0  0  0  0  0  0  0  0  0  0  0
  -30.0837    1.0526   -5.3833 N   0  0  0  0  0  0  0  0  0  0  0  0
  -30.3048   -0.0668   -6.1811 C   0  0  0  0  0  0  0  0  0  0  0  0
  -29.1223   -0.8207   -6.1785 C   0  0  0  0  0  0  0  0  0  0  0  0
  -28.5312   -0.2507   -4.9728 C   0  0  0  0  0  0  0  0  0  0  0  0
  -28.9675    0.9554   -4.6554 N   0  0  0  0  0  0  0  0  0  0  0  0
  -27.8066   -1.0510   -3.9455 C   0  0  0  0  0  0  0  0  0  0  0  0
  -27.2163   -2.2268   -4.6527 C   0  0  0  0  0  0  0  0  0  0  0  0
  -28.4081   -2.8954   -5.3081 C   0  0  0  0  0  0  0  0  0  0  0  0
  -28.9245   -2.2834   -6.4467 C   0  0  0  0  0  0  0  0  0  0  0  0
  -28.5711   -3.0954   -7.5628 C   0  0  0  0  0  0  0  0  0  0  0  0
  -28.3503   -4.5500   -7.4137 C   0  0  0  0  0  0  0  0  0  0  0  0
  -28.6753   -5.0969   -6.1573 C   0  0  0  0  0  0  0  0  0  0  0  0
  -28.7353   -4.2103   -5.1357 C   0  0  0  0  0  0  0  0  0  0  0  0
  -28.9867   -4.9207   -4.0221 N   0  0  0  0  0  0  0  0  0  0  0  0
  -29.1002   -6.2453   -4.3478 C   0  0  0  0  0  0  0  0  0  0  0  0
  -29.4943   -7.2695   -3.5123 C   0  0  0  0  0  0  0  0  0  0  0  0
  -29.2194   -8.5503   -3.9435 C   0  0  0  0  0  0  0  0  0  0  0  0
  -28.5136   -8.7937   -5.1308 C   0  0  0  0  0  0  0  0  0  0  0  0
  -28.3267   -7.7318   -6.0633 C   0  0  0  0  0  0  0  0  0  0  0  0
  -28.6526   -6.4155   -5.6707 C   0  0  0  0  0  0  0  0  0  0  0  0
  -27.6449   -5.1238   -8.5588 C   0  0  0  0  0  0  0  0  0  0  0  0
  -27.4759   -3.9183   -9.3562 N   0  0  0  0  0  0  0  0  0  0  0  0
  -28.0107   -2.7256   -8.8388 C   0  0  0  0  0  0  0  0  0  0  0  0
  -27.8658   -1.6526   -9.4090 O   0  0  0  0  0  0  0  0  0  0  0  0
  -29.1269   -4.5315   -3.0978 H   0  0  0  0  0  0  0  0  0  0  0  0
  -26.8192   -3.8601  -10.1238 H   0  0  0  0  0  0  0  0  0  0  0  0
  -27.8867  -10.1644   -5.3838 C   0  0  0  0  0  0  0  0  0  0  0  0
  -27.8518  -11.1548   -4.2005 C   0  0  0  0  0  0  0  0  0  0  0  0
  -26.8283  -10.7702   -3.1258 C   0  0  0  0  0  0  0  0  0  0  0  0
  -25.4707  -10.4897   -3.7469 C   0  0  0  0  0  0  0  0  0  0  0  0
  -25.5851   -9.5705   -4.9564 C   0  0  0  0  0  0  0  0  0  0  0  0
  -26.5513  -10.0292   -5.9064 O   0  0  0  0  0  0  0  0  0  0  0  0
  1  2  1  0  0  0
  2  3  1  0  0  0
  2  6  1  0  0  0
  3  4  2  0  0  0
  4  5  1  0  0  0
  4 10  1  0  0  0
  5  6  2  0  0  0
  5  7  1  0  0  0
  7  8  1  0  0  0
  8  9  1  0  0  0
  9 10  1  0  0  0
  9 14  2  0  0  0
 10 11  2  0  0  0
 11 12  1  0  0  0
 11 24  1  0  0  0
 12 13  2  0  0  0
 12 22  1  0  0  0
 13 14  1  0  0  0
 13 21  1  0  0  0
 14 15  1  0  0  0
 15 16  1  0  0  0
 15 26  1  0  0  0
 16 17  1  0  0  0
 16 21  2  0  0  0
 17 18  2  0  0  0
 18 19  1  0  0  0
 19 28  1  0  0  0
 19 20  2  0  0  0
 28 29  1  0  0  0
 28 33  1  0  0  0
 29 30  1  0  0  0
 30 31  1  0  0  0
 31 32  1  0  0  0
 32 33  1  0  0  0
 20 21  1  0  0  0
 22 23  1  0  0  0
 23 24  1  0  0  0
 23 27  1  0  0  0
 24 25  2  0  0  0
M  END
> <minimizedAffinity>
-6.21727

$$$$
