CHEMBL3901627


 31 34  0  0  0  0  0  0  0  0999 V2000
  -29.0123   -7.3427   -6.3520 C   0  0  0  0  0  0  0  0  0  0  0  0
  -29.2219   -7.5847   -4.9921 C   0  0  0  0  0  0  0  0  0  0  0  0
  -29.6035   -6.5524   -4.1575 C   0  0  0  0  0  0  0  0  0  0  0  0
  -29.6240   -5.2522   -4.5927 C   0  0  0  0  0  0  0  0  0  0  0  0
  -30.1948   -4.3967   -3.7397 N   0  0  0  0  0  0  0  0  0  0  0  0
  -30.0884   -3.0978   -4.0346 C   0  0  0  0  0  0  0  0  0  0  0  0
  -29.3563   -2.6457   -5.1160 C   0  0  0  0  0  0  0  0  0  0  0  0
  -28.8729   -3.5205   -6.0633 N   0  0  0  0  0  0  0  0  0  0  0  0
  -29.0697   -4.8829   -5.8428 C   0  0  0  0  0  0  0  0  0  0  0  0
  -28.8250   -5.9882   -6.7441 C   0  0  0  0  0  0  0  0  0  0  0  0
  -28.9408   -1.2467   -5.0491 C   0  0  0  0  0  0  0  0  0  0  0  0
  -29.6619   -0.0947   -5.4548 C   0  0  0  0  0  0  0  0  0  0  0  0
  -28.8852    0.9871   -5.6032 N   0  0  0  0  0  0  0  0  0  0  0  0
  -27.6542    0.5301   -5.3393 N   0  0  0  0  0  0  0  0  0  0  0  0
  -27.6229   -0.8120   -5.0764 C   0  0  0  0  0  0  0  0  0  0  0  0
  -26.8710    1.1793   -5.4238 H   0  0  0  0  0  0  0  0  0  0  0  0
  -29.2806   -8.4713   -7.2129 N   0  0  0  0  0  0  0  0  0  0  0  0
  -27.4445  -10.1737  -10.0090 C   0  0  0  0  0  0  0  0  0  0  0  0
  -26.3610  -10.7320   -9.3285 C   0  0  0  0  0  0  0  0  0  0  0  0
  -26.2643  -10.5890   -7.9484 C   0  0  0  0  0  0  0  0  0  0  0  0
  -27.2617   -9.8969   -7.2490 C   0  0  0  0  0  0  0  0  0  0  0  0
  -28.3753   -9.3284   -7.8885 C   0  0  0  0  0  0  0  0  0  0  0  0
  -28.4509   -9.4951   -9.2857 C   0  0  0  0  0  0  0  0  0  0  0  0
  -28.9302  -10.2783  -11.8836 C   0  0  0  0  0  0  0  0  0  0  0  0
  -27.5967  -10.2017  -11.3747 O   0  0  0  0  0  0  0  0  0  0  0  0
  -25.2350  -11.0431   -7.1667 O   0  0  0  0  0  0  0  0  0  0  0  0
  -24.9992  -10.3552   -5.9437 C   0  0  0  0  0  0  0  0  0  0  0  0
  -30.5964   -8.2075   -7.9136 C   0  0  0  0  0  0  0  0  0  0  0  0
  -31.7456   -9.1694   -7.5698 C   0  0  0  0  0  0  0  0  0  0  0  0
  -32.3238   -9.7561   -8.7351 O   0  0  0  0  0  0  0  0  0  0  0  0
  -33.2615   -9.4950   -8.7467 H   0  0  0  0  0  0  0  0  0  0  0  0
 24 25  1  0  0  0
 25 18  1  0  0  0
 18 19  1  0  0  0
 18 23  2  0  0  0
 19 20  2  0  0  0
 20 26  1  0  0  0
 20 21  1  0  0  0
 26 27  1  0  0  0
 21 22  2  0  0  0
 22 17  1  0  0  0
 22 23  1  0  0  0
 17 28  1  0  0  0
 17  1  1  0  0  0
 28 29  1  0  0  0
 29 30  1  0  0  0
 30 31  1  0  0  0
  1  2  1  0  0  0
  1 10  2  0  0  0
  2  3  2  0  0  0
  3  4  1  0  0  0
  4  5  1  0  0  0
  4  9  2  0  0  0
  5  6  2  0  0  0
  6  7  1  0  0  0
  7 11  1  0  0  0
  7  8  2  0  0  0
 11 12  1  0  0  0
 11 15  2  0  0  0
 12 13  2  0  0  0
 13 14  1  0  0  0
 14 15  1  0  0  0
 14 16  1  0  0  0
  8  9  1  0  0  0
  9 10  1  0  0  0
M  END
> <minimizedAffinity>
-7.97898

$$$$
