CHEMBL3897155


 32 35  0  0  0  0  0  0  0  0999 V2000
  -29.7444   -4.0522   -5.6225 N   0  0  0  0  0  0  0  0  0  0  0  0
  -29.4376   -5.4345   -5.5112 C   0  0  0  0  0  0  0  0  0  0  0  0
  -28.2766   -5.9022   -4.8851 C   0  0  0  0  0  0  0  0  0  0  0  0
  -27.9336   -7.2544   -4.9235 C   0  0  0  0  0  0  0  0  0  0  0  0
  -28.7552   -8.1808   -5.5369 C   0  0  0  0  0  0  0  0  0  0  0  0
  -28.3745   -9.4697   -5.5689 N   0  0  0  0  0  0  0  0  0  0  0  0
  -29.2354  -10.3273   -6.1642 C   0  0  0  0  0  0  0  0  0  0  0  0
  -30.4465   -9.9278   -6.7080 C   0  0  0  0  0  0  0  0  0  0  0  0
  -30.8204   -8.6248   -6.6941 N   0  0  0  0  0  0  0  0  0  0  0  0
  -29.9714   -7.7507   -6.1153 C   0  0  0  0  0  0  0  0  0  0  0  0
  -30.2811   -6.3949   -6.0962 C   0  0  0  0  0  0  0  0  0  0  0  0
  -31.3724  -10.8782   -7.2915 C   0  0  0  0  0  0  0  0  0  0  0  0
  -32.5714  -11.4390   -6.7948 C   0  0  0  0  0  0  0  0  0  0  0  0
  -33.1492  -12.2775   -7.6592 N   0  0  0  0  0  0  0  0  0  0  0  0
  -32.3224  -12.2554   -8.7176 N   0  0  0  0  0  0  0  0  0  0  0  0
  -31.2475  -11.4352   -8.5483 C   0  0  0  0  0  0  0  0  0  0  0  0
  -32.5588  -12.8217   -9.5257 H   0  0  0  0  0  0  0  0  0  0  0  0
  -28.0966   -0.8975   -6.8841 C   0  0  0  0  0  0  0  0  0  0  0  0
  -27.5636   -1.3351   -8.0933 C   0  0  0  0  0  0  0  0  0  0  0  0
  -27.7911   -2.6470   -8.4892 C   0  0  0  0  0  0  0  0  0  0  0  0
  -27.2915   -3.1281   -9.6656 O   0  0  0  0  0  0  0  0  0  0  0  0
  -28.5331   -3.5220   -7.6962 C   0  0  0  0  0  0  0  0  0  0  0  0
  -29.0585   -3.1244   -6.4528 C   0  0  0  0  0  0  0  0  0  0  0  0
  -28.8278   -1.7891   -6.0781 C   0  0  0  0  0  0  0  0  0  0  0  0
  -26.7429   -2.4446  -10.0835 H   0  0  0  0  0  0  0  0  0  0  0  0
  -28.2449    0.5264   -4.9763 C   0  0  0  0  0  0  0  0  0  0  0  0
  -27.9731    0.3638   -6.3631 O   0  0  0  0  0  0  0  0  0  0  0  0
  -30.9583   -3.5879   -4.9057 C   0  0  0  0  0  0  0  0  0  0  0  0
  -30.9799   -3.9537   -3.4115 C   0  0  0  0  0  0  0  0  0  0  0  0
  -32.0051   -5.0146   -3.0435 C   0  0  0  0  0  0  0  0  0  0  0  0
  -31.3372   -6.2388   -2.7425 O   0  0  0  0  0  0  0  0  0  0  0  0
  -30.7017   -6.4248   -3.4538 H   0  0  0  0  0  0  0  0  0  0  0  0
 26 27  1  0  0  0
 27 18  1  0  0  0
 18 19  1  0  0  0
 18 24  2  0  0  0
 19 20  2  0  0  0
 20 21  1  0  0  0
 20 22  1  0  0  0
 21 25  1  0  0  0
 22 23  2  0  0  0
 23  1  1  0  0  0
 23 24  1  0  0  0
  1 28  1  0  0  0
  1  2  1  0  0  0
 28 29  1  0  0  0
 29 30  1  0  0  0
 30 31  1  0  0  0
 31 32  1  0  0  0
  2  3  1  0  0  0
  2 11  2  0  0  0
  3  4  2  0  0  0
  4  5  1  0  0  0
  5  6  1  0  0  0
  5 10  2  0  0  0
  6  7  2  0  0  0
  7  8  1  0  0  0
  8 12  1  0  0  0
  8  9  2  0  0  0
 12 13  1  0  0  0
 12 16  2  0  0  0
 13 14  2  0  0  0
 14 15  1  0  0  0
 15 16  1  0  0  0
 15 17  1  0  0  0
  9 10  1  0  0  0
 10 11  1  0  0  0
M  END
> <minimizedAffinity>
-8.31515

$$$$
