CHEMBL1098119


 36 39  0  0  0  0  0  0  0  0999 V2000
  -28.8343   -0.8909   -5.2733 C   0  0  0  0  0  0  0  0  0  0  0  0
  -29.3514   -1.7211   -4.2906 C   0  0  0  0  0  0  0  0  0  0  0  0
  -29.3627   -3.0053   -4.7179 N   0  0  0  0  0  0  0  0  0  0  0  0
  -28.8405   -2.9972   -5.9611 C   0  0  0  0  0  0  0  0  0  0  0  0
  -28.6361   -4.0854   -6.8040 C   0  0  0  0  0  0  0  0  0  0  0  0
  -28.0552   -3.8555   -8.0506 C   0  0  0  0  0  0  0  0  0  0  0  0
  -27.6763   -2.5446   -8.4647 C   0  0  0  0  0  0  0  0  0  0  0  0
  -27.9056   -1.4564   -7.5890 C   0  0  0  0  0  0  0  0  0  0  0  0
  -28.4930   -1.7192   -6.3385 C   0  0  0  0  0  0  0  0  0  0  0  0
  -28.6970    0.5983   -5.1321 C   0  0  0  0  0  0  0  0  0  0  0  0
  -29.6547    1.7751   -7.1098 N   0  0  0  0  0  0  0  0  0  0  0  0
  -29.9036    1.3374   -5.7317 C   0  0  0  0  0  0  0  0  0  0  0  0
  -29.5617    2.8154   -7.1432 H   0  0  0  0  0  0  0  0  0  0  0  0
  -28.7819    1.3530   -7.5045 H   0  0  0  0  0  0  0  0  0  0  0  0
  -29.8410   -4.1563   -3.9424 C   0  0  0  0  0  0  0  0  0  0  0  0
  -31.2549   -4.5534   -4.3601 C   0  0  0  0  0  0  0  0  0  0  0  0
  -31.4904   -6.0751   -4.3457 C   0  0  0  0  0  0  0  0  0  0  0  0
  -30.5312   -6.8043   -5.3010 C   0  0  0  0  0  0  0  0  0  0  0  0
  -31.0740   -6.8572   -6.7428 C   0  0  0  0  0  0  0  0  0  0  0  0
  -30.2963   -7.8102   -7.6045 C   0  0  0  0  0  0  0  0  0  0  0  0
  -30.9040   -8.9789   -8.0934 C   0  0  0  0  0  0  0  0  0  0  0  0
  -30.1883   -9.8506   -8.9155 C   0  0  0  0  0  0  0  0  0  0  0  0
  -28.8657   -9.5575   -9.2627 C   0  0  0  0  0  0  0  0  0  0  0  0
  -28.2585   -8.3925   -8.7859 C   0  0  0  0  0  0  0  0  0  0  0  0
  -28.9690   -7.5188   -7.9587 C   0  0  0  0  0  0  0  0  0  0  0  0
  -27.0996   -2.3279   -9.6850 O   0  0  0  0  0  0  0  0  0  0  0  0
  -27.5535   -1.3458  -10.5504 C   0  0  0  0  0  0  0  0  0  0  0  0
  -27.4415   -1.7267  -12.0285 C   0  0  0  0  0  0  0  0  0  0  0  0
  -26.0948   -1.2521  -12.5393 C   0  0  0  0  0  0  0  0  0  0  0  0
  -25.2939   -0.4067  -11.7465 C   0  0  0  0  0  0  0  0  0  0  0  0
  -24.0821    0.0874  -12.2333 C   0  0  0  0  0  0  0  0  0  0  0  0
  -23.6445   -0.2618  -13.5171 C   0  0  0  0  0  0  0  0  0  0  0  0
  -22.4843    0.2231  -14.0043 O   0  0  0  0  0  0  0  0  0  0  0  0
  -24.4231   -1.1181  -14.3042 C   0  0  0  0  0  0  0  0  0  0  0  0
  -25.6415   -1.6116  -13.8207 C   0  0  0  0  0  0  0  0  0  0  0  0
  -21.9297    0.8336  -13.4969 H   0  0  0  0  0  0  0  0  0  0  0  0
 11 12  1  0  0  0
 11 13  1  0  0  0
 11 14  1  0  0  0
 12 10  1  0  0  0
 10  1  1  0  0  0
  1  2  2  0  0  0
  1  9  1  0  0  0
  2  3  1  0  0  0
  3 15  1  0  0  0
  3  4  1  0  0  0
 15 16  1  0  0  0
 16 17  1  0  0  0
 17 18  1  0  0  0
 18 19  1  0  0  0
 19 20  1  0  0  0
 20 21  1  0  0  0
 20 25  2  0  0  0
 21 22  2  0  0  0
 22 23  1  0  0  0
 23 24  2  0  0  0
 24 25  1  0  0  0
  4  5  1  0  0  0
  4  9  2  0  0  0
  5  6  2  0  0  0
  6  7  1  0  0  0
  7 26  1  0  0  0
  7  8  2  0  0  0
 26 27  1  0  0  0
 27 28  1  0  0  0
 28 29  1  0  0  0
 29 30  1  0  0  0
 29 35  2  0  0  0
 30 31  2  0  0  0
 31 32  1  0  0  0
 32 33  1  0  0  0
 32 34  2  0  0  0
 33 36  1  0  0  0
 34 35  1  0  0  0
  8  9  1  0  0  0
M  END
> <minimizedAffinity>
-9.61198

$$$$
