CHEMBL3892117


 31 34  0  0  0  0  0  0  0  0999 V2000
  -26.9557   -9.3255   -4.6932 C   0  0  0  0  0  0  0  0  0  0  0  0
  -27.7627   -8.2016   -4.5005 C   0  0  0  0  0  0  0  0  0  0  0  0
  -28.5658   -7.6839   -5.5464 C   0  0  0  0  0  0  0  0  0  0  0  0
  -29.3098   -6.4967   -5.4865 C   0  0  0  0  0  0  0  0  0  0  0  0
  -30.0831   -6.0766   -6.5055 N   0  0  0  0  0  0  0  0  0  0  0  0
  -30.0979   -6.8441   -7.5958 C   0  0  0  0  0  0  0  0  0  0  0  0
  -29.4242   -7.9810   -7.7649 N   0  0  0  0  0  0  0  0  0  0  0  0
  -28.6642   -8.3881   -6.7478 C   0  0  0  0  0  0  0  0  0  0  0  0
  -27.9423   -9.5527   -6.8902 C   0  0  0  0  0  0  0  0  0  0  0  0
  -27.0452  -10.0176   -5.9148 C   0  0  0  0  0  0  0  0  0  0  0  0
  -24.9014   -8.9834   -3.5190 C   0  0  0  0  0  0  0  0  0  0  0  0
  -26.0622   -9.7809   -3.7573 O   0  0  0  0  0  0  0  0  0  0  0  0
  -29.1878   -5.6740   -4.3416 N   0  0  0  0  0  0  0  0  0  0  0  0
  -28.7569   -6.1945   -3.5883 H   0  0  0  0  0  0  0  0  0  0  0  0
  -28.9614   -4.2832   -4.3067 C   0  0  0  0  0  0  0  0  0  0  0  0
  -27.7425   -3.7627   -4.7774 C   0  0  0  0  0  0  0  0  0  0  0  0
  -27.5483   -2.3913   -4.9360 C   0  0  0  0  0  0  0  0  0  0  0  0
  -28.5818   -1.5180   -4.6293 C   0  0  0  0  0  0  0  0  0  0  0  0
  -28.3599    0.3349   -4.9270 Br  0  0  0  0  0  0  0  0  0  0  0  0
  -29.7875   -2.0010   -4.1241 C   0  0  0  0  0  0  0  0  0  0  0  0
  -29.9889   -3.3830   -3.9514 C   0  0  0  0  0  0  0  0  0  0  0  0
  -31.2954   -3.8538   -3.3716 C   0  0  0  0  0  0  0  0  0  0  0  0
  -26.2436  -11.1243   -6.1154 O   0  0  0  0  0  0  0  0  0  0  0  0
  -25.0027  -10.8474   -6.7919 C   0  0  0  0  0  0  0  0  0  0  0  0
  -24.0656  -12.0667   -6.8758 C   0  0  0  0  0  0  0  0  0  0  0  0
  -23.5054  -12.4659   -5.5041 C   0  0  0  0  0  0  0  0  0  0  0  0
  -22.7091  -11.3465   -4.9687 N   0  0  0  0  0  0  0  0  0  0  0  0
  -22.3158  -11.5857   -3.5907 C   0  0  0  0  0  0  0  0  0  0  0  0
  -21.5637  -11.1174   -5.8644 C   0  0  0  0  0  0  0  0  0  0  0  0
  -22.0235  -10.8650   -7.3158 C   0  0  0  0  0  0  0  0  0  0  0  0
  -22.9699  -11.8381   -7.7988 O   0  0  0  0  0  0  0  0  0  0  0  0
 11 12  1  0  0  0
 12  1  1  0  0  0
  1  2  1  0  0  0
  1 10  2  0  0  0
  2  3  2  0  0  0
  3  4  1  0  0  0
  3  8  1  0  0  0
  4 13  1  0  0  0
  4  5  2  0  0  0
 13 15  1  0  0  0
 13 14  1  0  0  0
 15 16  1  0  0  0
 15 21  2  0  0  0
 16 17  2  0  0  0
 17 18  1  0  0  0
 18 19  1  0  0  0
 18 20  2  0  0  0
 20 21  1  0  0  0
 21 22  1  0  0  0
  5  6  1  0  0  0
  6  7  2  0  0  0
  7  8  1  0  0  0
  8  9  2  0  0  0
  9 10  1  0  0  0
 10 23  1  0  0  0
 23 24  1  0  0  0
 24 25  1  0  0  0
 25 26  1  0  0  0
 25 31  1  0  0  0
 26 27  1  0  0  0
 27 28  1  0  0  0
 27 29  1  0  0  0
 29 30  1  0  0  0
 30 31  1  0  0  0
M  END
> <minimizedAffinity>
-7.74113

$$$$
