CHEMBL217092


 39 44  0  0  0  0  0  0  0  0999 V2000
  -26.7383  -11.5698   -4.0401 C   0  0  0  0  0  0  0  0  0  0  0  0
  -27.6832  -10.5537   -4.0106 C   0  0  0  0  0  0  0  0  0  0  0  0
  -28.2580  -10.0835   -5.1907 C   0  0  0  0  0  0  0  0  0  0  0  0
  -27.8502  -10.5760   -6.4646 C   0  0  0  0  0  0  0  0  0  0  0  0
  -28.3173  -10.2115   -7.7677 C   0  0  0  0  0  0  0  0  0  0  0  0
  -27.8938  -10.8675   -8.8643 N   0  0  0  0  0  0  0  0  0  0  0  0
  -26.9747  -11.8145   -8.6950 C   0  0  0  0  0  0  0  0  0  0  0  0
  -26.4241  -12.2053   -7.5514 N   0  0  0  0  0  0  0  0  0  0  0  0
  -26.8570  -11.5938   -6.4562 C   0  0  0  0  0  0  0  0  0  0  0  0
  -26.3097  -12.0564   -5.2619 C   0  0  0  0  0  0  0  0  0  0  0  0
  -29.2421   -9.1411   -7.9561 N   0  0  0  0  0  0  0  0  0  0  0  0
  -28.7950   -8.2462   -7.8134 H   0  0  0  0  0  0  0  0  0  0  0  0
  -30.6396   -9.1354   -7.7002 C   0  0  0  0  0  0  0  0  0  0  0  0
  -31.3919   -7.9633   -7.4316 C   0  0  0  0  0  0  0  0  0  0  0  0
  -30.6470   -6.3985   -7.4011 Cl  0  0  0  0  0  0  0  0  0  0  0  0
  -32.7708   -8.0144   -7.0887 C   0  0  0  0  0  0  0  0  0  0  0  0
  -33.4320   -9.2390   -6.9998 C   0  0  0  0  0  0  0  0  0  0  0  0
  -32.7099  -10.3659   -7.3154 C   0  0  0  0  0  0  0  0  0  0  0  0
  -31.3780  -10.3105   -7.6818 C   0  0  0  0  0  0  0  0  0  0  0  0
  -30.8903  -11.5572   -7.9556 O   0  0  0  0  0  0  0  0  0  0  0  0
  -32.0535  -12.3688   -7.7623 C   0  0  0  0  0  0  0  0  0  0  0  0
  -33.1694  -11.6436   -7.2114 O   0  0  0  0  0  0  0  0  0  0  0  0
  -26.2774  -12.1324   -2.8958 O   0  0  0  0  0  0  0  0  0  0  0  0
  -25.0336  -11.5962   -2.4018 C   0  0  0  0  0  0  0  0  0  0  0  0
  -23.8450  -12.1469   -3.1833 C   0  0  0  0  0  0  0  0  0  0  0  0
  -21.7599  -12.2662   -7.5667 C   0  0  0  0  0  0  0  0  0  0  0  0
  -21.8322  -11.5778   -6.2863 N   0  0  0  0  0  0  0  0  0  0  0  0
  -23.1740  -11.0186   -6.0492 C   0  0  0  0  0  0  0  0  0  0  0  0
  -23.2085  -10.2799   -4.6943 C   0  0  0  0  0  0  0  0  0  0  0  0
  -22.8474  -11.1149   -3.5209 N   0  0  0  0  0  0  0  0  0  0  0  0
  -21.5417  -11.7455   -3.8011 C   0  0  0  0  0  0  0  0  0  0  0  0
  -21.4566  -12.4642   -5.1708 C   0  0  0  0  0  0  0  0  0  0  0  0
  -29.2482   -9.1437   -5.1094 O   0  0  0  0  0  0  0  0  0  0  0  0
  -28.9670   -7.8533   -4.5182 C   0  0  0  0  0  0  0  0  0  0  0  0
  -30.1811   -7.0644   -3.9812 C   0  0  0  0  0  0  0  0  0  0  0  0
  -29.6855   -5.8142   -3.2645 C   0  0  0  0  0  0  0  0  0  0  0  0
  -28.8286   -5.0629   -4.1280 O   0  0  0  0  0  0  0  0  0  0  0  0
  -27.6237   -5.7605   -4.4463 C   0  0  0  0  0  0  0  0  0  0  0  0
  -27.9201   -7.0097   -5.2573 C   0  0  0  0  0  0  0  0  0  0  0  0
 26 27  1  0  0  0
 27 28  1  0  0  0
 27 32  1  0  0  0
 28 29  1  0  0  0
 29 30  1  0  0  0
 30 25  1  0  0  0
 30 31  1  0  0  0
 25 24  1  0  0  0
 24 23  1  0  0  0
 23  1  1  0  0  0
  1  2  1  0  0  0
  1 10  2  0  0  0
  2  3  2  0  0  0
  3 33  1  0  0  0
  3  4  1  0  0  0
 33 34  1  0  0  0
 34 35  1  0  0  0
 34 39  1  0  0  0
 35 36  1  0  0  0
 36 37  1  0  0  0
 37 38  1  0  0  0
 38 39  1  0  0  0
  4  5  1  0  0  0
  4  9  2  0  0  0
  5 11  1  0  0  0
  5  6  2  0  0  0
 11 13  1  0  0  0
 11 12  1  0  0  0
 13 14  1  0  0  0
 13 19  2  0  0  0
 14 15  1  0  0  0
 14 16  2  0  0  0
 16 17  1  0  0  0
 17 18  2  0  0  0
 18 19  1  0  0  0
 18 22  1  0  0  0
 19 20  1  0  0  0
 20 21  1  0  0  0
 21 22  1  0  0  0
  6  7  1  0  0  0
  7  8  2  0  0  0
  8  9  1  0  0  0
  9 10  1  0  0  0
 31 32  1  0  0  0
M  END
> <minimizedAffinity>
-6.80413

$$$$
