CHEMBL431006


 29 32  0  0  0  0  0  0  0  0999 V2000
  -28.1949   -2.2945   -8.1333 C   0  0  0  0  0  0  0  0  0  0  0  0
  -28.0662   -3.6057   -7.8342 N   0  0  0  0  0  0  0  0  0  0  0  0
  -28.0117   -4.0351   -6.5438 N   0  0  0  0  0  0  0  0  0  0  0  0
  -28.1245   -3.1539   -5.5265 C   0  0  0  0  0  0  0  0  0  0  0  0
  -28.2146   -1.7689   -5.7627 C   0  0  0  0  0  0  0  0  0  0  0  0
  -28.3312   -0.8013   -4.7349 C   0  0  0  0  0  0  0  0  0  0  0  0
  -28.3902    0.5644   -5.0150 C   0  0  0  0  0  0  0  0  0  0  0  0
  -28.3421    1.0012   -6.3294 C   0  0  0  0  0  0  0  0  0  0  0  0
  -28.2654    0.0694   -7.3640 C   0  0  0  0  0  0  0  0  0  0  0  0
  -28.2062   -1.3238   -7.1095 C   0  0  0  0  0  0  0  0  0  0  0  0
  -28.4188   -1.9163   -9.4813 N   0  0  0  0  0  0  0  0  0  0  0  0
  -29.2969   -1.4336   -9.6086 H   0  0  0  0  0  0  0  0  0  0  0  0
  -25.3926   -1.2677  -12.4318 C   0  0  0  0  0  0  0  0  0  0  0  0
  -25.1032   -1.2406  -11.0608 C   0  0  0  0  0  0  0  0  0  0  0  0
  -26.0957   -1.4460  -10.0982 C   0  0  0  0  0  0  0  0  0  0  0  0
  -27.4320   -1.6508  -10.4516 C   0  0  0  0  0  0  0  0  0  0  0  0
  -27.7355   -1.6806  -11.8149 C   0  0  0  0  0  0  0  0  0  0  0  0
  -26.7363   -1.4795  -12.7875 C   0  0  0  0  0  0  0  0  0  0  0  0
  -24.8143   -1.1153  -14.9254 C   0  0  0  0  0  0  0  0  0  0  0  0
  -24.2851   -1.0219  -13.4725 C   0  0  0  0  0  0  0  0  0  0  0  0
  -23.1949   -2.0937  -13.2806 C   0  0  0  0  0  0  0  0  0  0  0  0
  -23.6330    0.3724  -13.3411 C   0  0  0  0  0  0  0  0  0  0  0  0
  -28.1708   -3.7918   -4.1555 C   0  0  0  0  0  0  0  0  0  0  0  0
  -29.4930   -4.4401   -3.8121 C   0  0  0  0  0  0  0  0  0  0  0  0
  -30.6287   -3.6606   -3.5526 C   0  0  0  0  0  0  0  0  0  0  0  0
  -31.8302   -4.2939   -3.2742 C   0  0  0  0  0  0  0  0  0  0  0  0
  -31.9831   -5.6342   -3.2438 N   0  0  0  0  0  0  0  0  0  0  0  0
  -30.8829   -6.3702   -3.5024 C   0  0  0  0  0  0  0  0  0  0  0  0
  -29.6359   -5.8306   -3.7894 C   0  0  0  0  0  0  0  0  0  0  0  0
 19 20  1  0  0  0
 20 21  1  0  0  0
 20 22  1  0  0  0
 20 13  1  0  0  0
 13 14  1  0  0  0
 13 18  2  0  0  0
 14 15  2  0  0  0
 15 16  1  0  0  0
 16 11  1  0  0  0
 16 17  2  0  0  0
 11  1  1  0  0  0
 11 12  1  0  0  0
  1  2  1  0  0  0
  1 10  2  0  0  0
  2  3  2  0  0  0
  3  4  1  0  0  0
  4 23  1  0  0  0
  4  5  2  0  0  0
 23 24  1  0  0  0
 24 25  1  0  0  0
 24 29  2  0  0  0
 25 26  2  0  0  0
 26 27  1  0  0  0
 27 28  2  0  0  0
 28 29  1  0  0  0
  5  6  1  0  0  0
  5 10  1  0  0  0
  6  7  2  0  0  0
  7  8  1  0  0  0
  8  9  2  0  0  0
  9 10  1  0  0  0
 17 18  1  0  0  0
M  END
> <minimizedAffinity>
-9.65876

$$$$
