CHEMBL3671546


 35 37  0  0  0  0  0  0  0  0999 V2000
  -17.4335    1.6643  -14.4243 C   0  0  0  0  0  0  0  0  0  0  0  0
  -16.8377    0.6783  -13.6377 C   0  0  0  0  0  0  0  0  0  0  0  0
  -15.4800    0.3427  -13.8179 C   0  0  0  0  0  0  0  0  0  0  0  0
  -14.8293   -0.7223  -13.1713 C   0  0  0  0  0  0  0  0  0  0  0  0
  -13.5274   -0.9798  -13.3685 N   0  0  0  0  0  0  0  0  0  0  0  0
  -12.8821   -0.2165  -14.2458 C   0  0  0  0  0  0  0  0  0  0  0  0
  -13.4138    0.7839  -14.9607 N   0  0  0  0  0  0  0  0  0  0  0  0
  -14.7063    1.0453  -14.7533 C   0  0  0  0  0  0  0  0  0  0  0  0
  -15.3133    2.0449  -15.5015 C   0  0  0  0  0  0  0  0  0  0  0  0
  -16.6603    2.3830  -15.3422 C   0  0  0  0  0  0  0  0  0  0  0  0
  -19.7498    1.0584  -14.7934 C   0  0  0  0  0  0  0  0  0  0  0  0
  -19.4822    0.1160  -15.5317 O   0  0  0  0  0  0  0  0  0  0  0  0
  -18.8100    1.8953  -14.2202 N   0  0  0  0  0  0  0  0  0  0  0  0
  -19.0490    2.2304  -13.2962 H   0  0  0  0  0  0  0  0  0  0  0  0
  -21.5095    2.6851  -14.3725 C   0  0  0  0  0  0  0  0  0  0  0  0
  -21.1717    1.3847  -14.4228 C   0  0  0  0  0  0  0  0  0  0  0  0
  -22.1542    0.3056  -14.0883 C   0  0  0  0  0  0  0  0  0  0  0  0
  -15.5670   -1.5917  -12.3248 N   0  0  0  0  0  0  0  0  0  0  0  0
  -15.5920   -1.2493  -11.3681 H   0  0  0  0  0  0  0  0  0  0  0  0
  -15.4870   -3.0005  -12.3978 C   0  0  0  0  0  0  0  0  0  0  0  0
  -15.9918   -3.6907  -13.5102 C   0  0  0  0  0  0  0  0  0  0  0  0
  -15.8247   -5.0718  -13.6346 C   0  0  0  0  0  0  0  0  0  0  0  0
  -15.1728   -5.7765  -12.6282 C   0  0  0  0  0  0  0  0  0  0  0  0
  -14.8710   -7.6301  -12.8392 Br  0  0  0  0  0  0  0  0  0  0  0  0
  -14.7266   -5.1256  -11.4814 C   0  0  0  0  0  0  0  0  0  0  0  0
  -14.8979   -3.7467  -11.3710 C   0  0  0  0  0  0  0  0  0  0  0  0
  -14.4527   -3.1196  -10.2707 F   0  0  0  0  0  0  0  0  0  0  0  0
  -17.0615    3.4510  -16.1215 O   0  0  0  0  0  0  0  0  0  0  0  0
  -16.1245    4.5276  -16.1817 C   0  0  0  0  0  0  0  0  0  0  0  0
  -15.5010    4.6592  -17.5745 C   0  0  0  0  0  0  0  0  0  0  0  0
  -14.8613    5.9569  -17.7630 N   0  0  0  0  0  0  0  0  0  0  0  0
  -14.6652    6.4974  -19.0149 C   0  0  0  0  0  0  0  0  0  0  0  0
  -13.9160    7.8016  -19.0279 C   0  0  0  0  0  0  0  0  0  0  0  0
  -15.0299    5.9613  -20.0569 O   0  0  0  0  0  0  0  0  0  0  0  0
  -14.6374    6.5050  -16.9424 H   0  0  0  0  0  0  0  0  0  0  0  0
 15 16  2  0  0  0
 16 17  1  0  0  0
 16 11  1  0  0  0
 11 12  2  0  0  0
 11 13  1  0  0  0
 13  1  1  0  0  0
 13 14  1  0  0  0
  1  2  1  0  0  0
  1 10  2  0  0  0
  2  3  2  0  0  0
  3  4  1  0  0  0
  3  8  1  0  0  0
  4 18  1  0  0  0
  4  5  2  0  0  0
 18 20  1  0  0  0
 18 19  1  0  0  0
 20 21  1  0  0  0
 20 26  2  0  0  0
 21 22  2  0  0  0
 22 23  1  0  0  0
 23 24  1  0  0  0
 23 25  2  0  0  0
 25 26  1  0  0  0
 26 27  1  0  0  0
  5  6  1  0  0  0
  6  7  2  0  0  0
  7  8  1  0  0  0
  8  9  2  0  0  0
  9 10  1  0  0  0
 10 28  1  0  0  0
 28 29  1  0  0  0
 29 30  1  0  0  0
 30 31  1  0  0  0
 31 32  1  0  0  0
 31 35  1  0  0  0
 32 33  1  0  0  0
 32 34  2  0  0  0
M  END
> <minimizedAffinity>
-8.13013

$$$$
