CHEMBL3949400


 35 39  0  0  0  0  0  0  0  0999 V2000
  -28.4088   -6.0838   -4.9653 C   0  0  0  0  0  0  0  0  0  0  0  0
  -27.7718   -7.2759   -4.5862 C   0  0  0  0  0  0  0  0  0  0  0  0
  -28.3005   -8.5458   -4.9271 C   0  0  0  0  0  0  0  0  0  0  0  0
  -27.7750   -9.7925   -4.5590 C   0  0  0  0  0  0  0  0  0  0  0  0
  -28.3276  -10.9522   -4.9671 N   0  0  0  0  0  0  0  0  0  0  0  0
  -29.4119  -10.8751   -5.7385 C   0  0  0  0  0  0  0  0  0  0  0  0
  -29.9961   -9.7494   -6.1377 N   0  0  0  0  0  0  0  0  0  0  0  0
  -29.4373   -8.6097   -5.7288 C   0  0  0  0  0  0  0  0  0  0  0  0
  -30.0384   -7.4306   -6.1212 C   0  0  0  0  0  0  0  0  0  0  0  0
  -29.5831   -6.1589   -5.7204 C   0  0  0  0  0  0  0  0  0  0  0  0
  -28.2122   -4.2189   -3.4666 C   0  0  0  0  0  0  0  0  0  0  0  0
  -27.7214   -4.9771   -4.5605 O   0  0  0  0  0  0  0  0  0  0  0  0
  -26.6285   -9.8561   -3.7199 N   0  0  0  0  0  0  0  0  0  0  0  0
  -26.8562  -10.3703   -2.8748 H   0  0  0  0  0  0  0  0  0  0  0  0
  -25.3331  -10.1301   -4.2108 C   0  0  0  0  0  0  0  0  0  0  0  0
  -25.0609  -10.0148   -5.5821 C   0  0  0  0  0  0  0  0  0  0  0  0
  -23.8137  -10.3577   -6.1013 C   0  0  0  0  0  0  0  0  0  0  0  0
  -22.8117  -10.8161   -5.2482 C   0  0  0  0  0  0  0  0  0  0  0  0
  -21.3029  -11.2683   -5.9564 Cl  0  0  0  0  0  0  0  0  0  0  0  0
  -23.0579  -10.9054   -3.8726 C   0  0  0  0  0  0  0  0  0  0  0  0
  -21.8584  -11.4608   -2.7576 Cl  0  0  0  0  0  0  0  0  0  0  0  0
  -24.3124  -10.5547   -3.3553 C   0  0  0  0  0  0  0  0  0  0  0  0
  -30.2609   -5.0107   -6.0767 O   0  0  0  0  0  0  0  0  0  0  0  0
  -29.9613   -4.5678   -7.4160 C   0  0  0  0  0  0  0  0  0  0  0  0
  -29.1857   -3.2980   -7.5080 C   0  0  0  0  0  0  0  0  0  0  0  0
  -28.9305   -2.3775   -6.5116 C   0  0  0  0  0  0  0  0  0  0  0  0
  -27.8868   -1.1551   -7.1034 S   0  0  0  0  0  0  0  0  0  0  0  0
  -27.8404   -1.9357   -8.6428 C   0  0  0  0  0  0  0  0  0  0  0  0
  -28.5709   -3.0251   -8.7246 N   0  0  0  0  0  0  0  0  0  0  0  0
  -27.0652   -1.3195   -9.7735 C   0  0  0  0  0  0  0  0  0  0  0  0
  -27.7589   -1.3938  -11.1275 C   0  0  0  0  0  0  0  0  0  0  0  0
  -26.6388   -0.9886  -12.0720 C   0  0  0  0  0  0  0  0  0  0  0  0
  -25.3719   -1.4933  -11.3876 C   0  0  0  0  0  0  0  0  0  0  0  0
  -25.7977   -2.0059  -10.0833 N   0  0  0  0  0  0  0  0  0  0  0  0
  -25.1035   -1.8223   -9.3632 H   0  0  0  0  0  0  0  0  0  0  0  0
 11 12  1  0  0  0
 12  1  1  0  0  0
  1  2  1  0  0  0
  1 10  2  0  0  0
  2  3  2  0  0  0
  3  4  1  0  0  0
  3  8  1  0  0  0
  4 13  1  0  0  0
  4  5  2  0  0  0
 13 15  1  0  0  0
 13 14  1  0  0  0
 15 16  1  0  0  0
 15 22  2  0  0  0
 16 17  2  0  0  0
 17 18  1  0  0  0
 18 19  1  0  0  0
 18 20  2  0  0  0
 20 21  1  0  0  0
 20 22  1  0  0  0
  5  6  1  0  0  0
  6  7  2  0  0  0
  7  8  1  0  0  0
  8  9  2  0  0  0
  9 10  1  0  0  0
 10 23  1  0  0  0
 23 24  1  0  0  0
 24 25  1  0  0  0
 25 26  2  0  0  0
 25 29  1  0  0  0
 26 27  1  0  0  0
 27 28  1  0  0  0
 28 30  1  0  0  0
 28 29  2  0  0  0
 30 31  1  0  0  0
 30 34  1  0  0  0
 31 32  1  0  0  0
 32 33  1  0  0  0
 33 34  1  0  0  0
 34 35  1  0  0  0
M  END
> <minimizedAffinity>
-8.71676

$$$$
