CHEMBL189353


 41 44  0  0  0  0  0  0  0  0999 V2000
  -24.3111   11.9002  -19.2985 C   0  0  0  0  0  0  0  0  0  0  0  0
  -23.6943   11.8804  -17.9661 N   0  0  0  0  0  0  0  0  0  0  0  0
  -24.5431   11.7543  -16.8547 C   0  0  0  0  0  0  0  0  0  0  0  0
  -24.0797   11.2917  -15.6262 C   0  0  0  0  0  0  0  0  0  0  0  0
  -24.9359   11.1848  -14.5322 C   0  0  0  0  0  0  0  0  0  0  0  0
  -26.2857   11.5274  -14.6267 C   0  0  0  0  0  0  0  0  0  0  0  0
  -26.7569   12.0353  -15.8391 C   0  0  0  0  0  0  0  0  0  0  0  0
  -25.8937   12.1383  -16.9385 C   0  0  0  0  0  0  0  0  0  0  0  0
  -27.1942   11.3727  -13.5533 N   0  0  0  0  0  0  0  0  0  0  0  0
  -28.5244   11.7462  -13.5730 C   0  0  0  0  0  0  0  0  0  0  0  0
  -29.1056   12.2857  -14.5062 O   0  0  0  0  0  0  0  0  0  0  0  0
  -29.1616   11.4855  -12.3662 N   0  0  0  0  0  0  0  0  0  0  0  0
  -26.8425   10.9478  -12.7084 H   0  0  0  0  0  0  0  0  0  0  0  0
  -28.6073   11.7822  -11.5724 H   0  0  0  0  0  0  0  0  0  0  0  0
  -30.5547   11.7869  -12.2558 C   0  0  0  0  0  0  0  0  0  0  0  0
  -31.4709   11.5760  -13.3081 C   0  0  0  0  0  0  0  0  0  0  0  0
  -31.0384   10.7838  -14.7875 Cl  0  0  0  0  0  0  0  0  0  0  0  0
  -32.8208   11.9186  -13.1529 C   0  0  0  0  0  0  0  0  0  0  0  0
  -33.2789   12.4540  -11.9502 C   0  0  0  0  0  0  0  0  0  0  0  0
  -32.3870   12.6575  -10.8995 C   0  0  0  0  0  0  0  0  0  0  0  0
  -31.0369   12.3257  -11.0518 C   0  0  0  0  0  0  0  0  0  0  0  0
  -29.9634   12.6564   -9.7341 Cl  0  0  0  0  0  0  0  0  0  0  0  0
  -22.3118   11.5796  -17.9888 C   0  0  0  0  0  0  0  0  0  0  0  0
  -21.6804   11.0590  -16.8756 C   0  0  0  0  0  0  0  0  0  0  0  0
  -20.3369   10.7984  -16.9800 C   0  0  0  0  0  0  0  0  0  0  0  0
  -19.6195   11.0358  -18.0850 N   0  0  0  0  0  0  0  0  0  0  0  0
  -20.2923   11.5424  -19.1240 C   0  0  0  0  0  0  0  0  0  0  0  0
  -21.6130   11.7995  -19.1114 N   0  0  0  0  0  0  0  0  0  0  0  0
  -19.5557   11.8432  -20.2736 N   0  0  0  0  0  0  0  0  0  0  0  0
  -20.2015   11.9364  -21.0477 H   0  0  0  0  0  0  0  0  0  0  0  0
  -18.3230   11.2591  -20.6190 C   0  0  0  0  0  0  0  0  0  0  0  0
  -18.2975   10.0080  -21.2333 C   0  0  0  0  0  0  0  0  0  0  0  0
  -17.0782    9.4236  -21.5846 C   0  0  0  0  0  0  0  0  0  0  0  0
  -15.8710   10.0776  -21.3131 C   0  0  0  0  0  0  0  0  0  0  0  0
  -15.8661   11.3324  -20.6954 C   0  0  0  0  0  0  0  0  0  0  0  0
  -17.1010   11.8883  -20.3322 C   0  0  0  0  0  0  0  0  0  0  0  0
  -14.6087   12.0687  -20.3125 C   0  0  0  0  0  0  0  0  0  0  0  0
  -13.1818   11.0109  -20.1218 S   0  0  0  0  0  0  0  0  0  0  0  0
  -12.0282   11.9460  -19.1382 C   0  0  0  0  0  0  0  0  0  0  0  0
  -13.6010    9.8882  -19.3019 O   0  0  0  0  0  0  0  0  0  0  0  0
  -12.5776   10.7692  -21.4101 O   0  0  0  0  0  0  0  0  0  0  0  0
  1  2  1  0  0  0
  2  3  1  0  0  0
  2 23  1  0  0  0
  3  4  1  0  0  0
  3  8  2  0  0  0
  4  5  2  0  0  0
  5  6  1  0  0  0
  6  9  1  0  0  0
  6  7  2  0  0  0
  9 10  1  0  0  0
  9 13  1  0  0  0
 10 11  2  0  0  0
 10 12  1  0  0  0
 12 15  1  0  0  0
 12 14  1  0  0  0
 15 16  1  0  0  0
 15 21  2  0  0  0
 16 17  1  0  0  0
 16 18  2  0  0  0
 18 19  1  0  0  0
 19 20  2  0  0  0
 20 21  1  0  0  0
 21 22  1  0  0  0
  7  8  1  0  0  0
 23 24  1  0  0  0
 23 28  2  0  0  0
 24 25  2  0  0  0
 25 26  1  0  0  0
 26 27  2  0  0  0
 27 29  1  0  0  0
 27 28  1  0  0  0
 29 31  1  0  0  0
 29 30  1  0  0  0
 31 32  1  0  0  0
 31 36  2  0  0  0
 32 33  2  0  0  0
 33 34  1  0  0  0
 34 35  2  0  0  0
 35 37  1  0  0  0
 35 36  1  0  0  0
 37 38  1  0  0  0
 38 39  1  0  0  0
 38 40  2  0  0  0
 38 41  2  0  0  0
M  END
> <minimizedAffinity>
-3.81849

$$$$
