CHEMBL4776193


 36 39  0  0  0  0  0  0  0  0999 V2000
  -22.8262   -0.5078  -13.3478 C   0  0  0  0  0  0  0  0  0  0  0  0
  -23.6472    0.4390  -12.7435 C   0  0  0  0  0  0  0  0  0  0  0  0
  -24.5609    0.0530  -11.7578 C   0  0  0  0  0  0  0  0  0  0  0  0
  -24.6937   -1.2848  -11.3742 C   0  0  0  0  0  0  0  0  0  0  0  0
  -23.9630   -2.2489  -12.0708 C   0  0  0  0  0  0  0  0  0  0  0  0
  -23.0496   -1.8603  -13.0561 C   0  0  0  0  0  0  0  0  0  0  0  0
  -25.5043   -1.7258  -10.2955 N   0  0  0  0  0  0  0  0  0  0  0  0
  -26.8851   -1.7116  -10.2843 C   0  0  0  0  0  0  0  0  0  0  0  0
  -27.6100   -1.4032  -11.2264 O   0  0  0  0  0  0  0  0  0  0  0  0
  -25.0203   -2.0364   -9.4740 H   0  0  0  0  0  0  0  0  0  0  0  0
  -27.5719   -2.1165   -9.0281 C   0  0  0  0  0  0  0  0  0  0  0  0
  -28.0971   -3.3882   -8.8060 C   0  0  0  0  0  0  0  0  0  0  0  0
  -28.6654   -3.6987   -7.5604 C   0  0  0  0  0  0  0  0  0  0  0  0
  -28.7179   -2.7563   -6.5141 C   0  0  0  0  0  0  0  0  0  0  0  0
  -28.1711   -1.4871   -6.7632 C   0  0  0  0  0  0  0  0  0  0  0  0
  -27.6063   -1.1736   -7.9978 C   0  0  0  0  0  0  0  0  0  0  0  0
  -29.3199   -3.0629   -5.1316 C   0  0  0  0  0  0  0  0  0  0  0  0
  -30.5912   -3.9346   -5.1996 C   0  0  0  0  0  0  0  0  0  0  0  0
  -28.2836   -3.8125   -4.2640 C   0  0  0  0  0  0  0  0  0  0  0  0
  -29.7031   -1.7473   -4.4174 C   0  0  0  0  0  0  0  0  0  0  0  0
  -21.8265   -0.1030  -14.2582 N   0  0  0  0  0  0  0  0  0  0  0  0
  -21.8871   -0.5863  -15.1479 H   0  0  0  0  0  0  0  0  0  0  0  0
  -17.4624    2.3747  -15.2155 C   0  0  0  0  0  0  0  0  0  0  0  0
  -18.5270    3.2937  -15.1480 C   0  0  0  0  0  0  0  0  0  0  0  0
  -19.8366    2.9132  -14.9175 C   0  0  0  0  0  0  0  0  0  0  0  0
  -20.7575    3.8710  -14.7826 N   0  0  0  0  0  0  0  0  0  0  0  0
  -21.9968    3.4708  -14.4947 C   0  0  0  0  0  0  0  0  0  0  0  0
  -22.3885    2.2091  -14.3341 N   0  0  0  0  0  0  0  0  0  0  0  0
  -21.4535    1.2493  -14.4817 C   0  0  0  0  0  0  0  0  0  0  0  0
  -20.1217    1.5552  -14.8003 C   0  0  0  0  0  0  0  0  0  0  0  0
  -19.0778    0.6131  -14.9497 C   0  0  0  0  0  0  0  0  0  0  0  0
  -17.7453    1.0071  -15.1341 C   0  0  0  0  0  0  0  0  0  0  0  0
  -16.0326    4.0453  -16.0846 C   0  0  0  0  0  0  0  0  0  0  0  0
  -16.1713    2.8069  -15.3799 O   0  0  0  0  0  0  0  0  0  0  0  0
  -16.9158   -0.0742  -15.1684 O   0  0  0  0  0  0  0  0  0  0  0  0
  -16.1143   -0.4370  -14.0593 C   0  0  0  0  0  0  0  0  0  0  0  0
 33 34  1  0  0  0
 34 23  1  0  0  0
 23 24  1  0  0  0
 23 32  2  0  0  0
 24 25  2  0  0  0
 25 26  1  0  0  0
 25 30  1  0  0  0
 26 27  2  0  0  0
 27 28  1  0  0  0
 28 29  2  0  0  0
 29 21  1  0  0  0
 29 30  1  0  0  0
 21  1  1  0  0  0
 21 22  1  0  0  0
  1  2  1  0  0  0
  1  6  2  0  0  0
  2  3  2  0  0  0
  3  4  1  0  0  0
  4  7  1  0  0  0
  4  5  2  0  0  0
  7  8  1  0  0  0
  7 10  1  0  0  0
  8  9  2  0  0  0
  8 11  1  0  0  0
 11 12  1  0  0  0
 11 16  2  0  0  0
 12 13  2  0  0  0
 13 14  1  0  0  0
 14 17  1  0  0  0
 14 15  2  0  0  0
 17 18  1  0  0  0
 17 19  1  0  0  0
 17 20  1  0  0  0
 15 16  1  0  0  0
  5  6  1  0  0  0
 30 31  2  0  0  0
 31 32  1  0  0  0
 32 35  1  0  0  0
 35 36  1  0  0  0
M  END
> <minimizedAffinity>
-10.96877

$$$$
