CHEMBL201713


 24 26  0  0  0  0  0  0  0  0999 V2000
  -26.2397   -1.5990  -12.2909 C   0  0  0  0  0  0  0  0  0  0  0  0
  -27.5434   -2.0556  -13.3123 S   0  0  0  0  0  0  0  0  0  0  0  0
  -26.5992   -1.6542  -14.6811 C   0  0  0  0  0  0  0  0  0  0  0  0
  -25.3875   -1.2104  -14.4379 N   0  0  0  0  0  0  0  0  0  0  0  0
  -25.1673   -1.1630  -13.0664 C   0  0  0  0  0  0  0  0  0  0  0  0
  -25.3077   -1.4850  -10.1493 O   0  0  0  0  0  0  0  0  0  0  0  0
  -26.3096   -1.6695  -10.8361 C   0  0  0  0  0  0  0  0  0  0  0  0
  -27.5420   -1.9969  -10.2917 N   0  0  0  0  0  0  0  0  0  0  0  0
  -28.2600   -2.2912  -10.9428 H   0  0  0  0  0  0  0  0  0  0  0  0
  -27.8246   -2.1189   -8.9130 C   0  0  0  0  0  0  0  0  0  0  0  0
  -28.2440   -3.3158   -8.3197 C   0  0  0  0  0  0  0  0  0  0  0  0
  -28.5886   -3.3655   -6.9668 C   0  0  0  0  0  0  0  0  0  0  0  0
  -28.5025   -2.2155   -6.1943 C   0  0  0  0  0  0  0  0  0  0  0  0
  -29.0198   -2.2698   -4.3783 Br  0  0  0  0  0  0  0  0  0  0  0  0
  -28.0426   -1.0251   -6.7556 C   0  0  0  0  0  0  0  0  0  0  0  0
  -27.6917   -0.9810   -8.1103 C   0  0  0  0  0  0  0  0  0  0  0  0
  -23.8227   -0.7082  -12.5628 C   0  0  0  0  0  0  0  0  0  0  0  0
  -22.7001   -0.7802  -13.5981 C   0  0  0  0  0  0  0  0  0  0  0  0
  -22.1847    0.5968  -13.9511 C   0  0  0  0  0  0  0  0  0  0  0  0
  -22.9331    1.7394  -13.6578 C   0  0  0  0  0  0  0  0  0  0  0  0
  -22.4188    2.9801  -14.0064 C   0  0  0  0  0  0  0  0  0  0  0  0
  -21.2325    3.1578  -14.6258 N   0  0  0  0  0  0  0  0  0  0  0  0
  -20.5323    2.0408  -14.9157 C   0  0  0  0  0  0  0  0  0  0  0  0
  -20.9607    0.7577  -14.6076 C   0  0  0  0  0  0  0  0  0  0  0  0
  6  7  2  0  0  0
  7  8  1  0  0  0
  7  1  1  0  0  0
  8 10  1  0  0  0
  8  9  1  0  0  0
 10 11  1  0  0  0
 10 16  2  0  0  0
 11 12  2  0  0  0
 12 13  1  0  0  0
 13 14  1  0  0  0
 13 15  2  0  0  0
 15 16  1  0  0  0
  1  2  1  0  0  0
  1  5  2  0  0  0
  2  3  1  0  0  0
  3  4  2  0  0  0
  4  5  1  0  0  0
  5 17  1  0  0  0
 17 18  1  0  0  0
 18 19  1  0  0  0
 19 20  1  0  0  0
 19 24  2  0  0  0
 20 21  2  0  0  0
 21 22  1  0  0  0
 22 23  2  0  0  0
 23 24  1  0  0  0
M  END
> <minimizedAffinity>
-8.89756

$$$$
