CHEMBL308672


 40 43  0  0  0  0  0  0  0  0999 V2000
  -14.1369   -0.0245  -14.7417 C   0  0  0  0  0  0  0  0  0  0  0  0
  -13.3666    0.9776  -14.2815 C   0  0  0  0  0  0  0  0  0  0  0  0
  -12.2603    0.9522  -13.2559 C   0  0  0  0  0  0  0  0  0  0  0  0
  -11.8620    0.0057  -12.6040 O   0  0  0  0  0  0  0  0  0  0  0  0
  -11.7732    2.2393  -13.2088 N   0  0  0  0  0  0  0  0  0  0  0  0
  -12.4483    3.0777  -14.0786 C   0  0  0  0  0  0  0  0  0  0  0  0
  -12.1506    4.3696  -14.2162 N   0  0  0  0  0  0  0  0  0  0  0  0
  -12.9179    4.9911  -15.1166 C   0  0  0  0  0  0  0  0  0  0  0  0
  -13.9043    4.4272  -15.8395 N   0  0  0  0  0  0  0  0  0  0  0  0
  -14.1713    3.1133  -15.6492 C   0  0  0  0  0  0  0  0  0  0  0  0
  -13.4371    2.3788  -14.7483 C   0  0  0  0  0  0  0  0  0  0  0  0
  -11.0088    2.5479  -12.6287 H   0  0  0  0  0  0  0  0  0  0  0  0
  -13.7763   -3.6393  -14.5397 C   0  0  0  0  0  0  0  0  0  0  0  0
  -14.5331   -3.4123  -13.4065 C   0  0  0  0  0  0  0  0  0  0  0  0
  -14.8097   -2.0291  -13.3034 C   0  0  0  0  0  0  0  0  0  0  0  0
  -15.6404   -1.4250  -12.2265 C   0  0  0  0  0  0  0  0  0  0  0  0
  -14.1815   -1.4039  -14.3793 C   0  0  0  0  0  0  0  0  0  0  0  0
  -13.5624   -2.4043  -15.1118 N   0  0  0  0  0  0  0  0  0  0  0  0
  -13.0498   -2.2618  -15.9755 H   0  0  0  0  0  0  0  0  0  0  0  0
  -12.2435   -5.5097  -14.4338 N   0  0  0  0  0  0  0  0  0  0  0  0
  -13.3637   -4.9445  -15.0081 C   0  0  0  0  0  0  0  0  0  0  0  0
  -13.9882   -5.5411  -15.8844 O   0  0  0  0  0  0  0  0  0  0  0  0
  -11.8852   -5.1734  -13.5487 H   0  0  0  0  0  0  0  0  0  0  0  0
  -11.8698   -6.8440  -14.8637 C   0  0  0  0  0  0  0  0  0  0  0  0
  -12.4471   -7.9778  -14.0029 C   0  0  0  0  0  0  0  0  0  0  0  0
  -12.6256   -7.6607  -12.5676 N   0  0  0  0  0  0  0  0  0  0  0  0
  -15.0189   -7.7660  -13.3693 C   0  0  0  0  0  0  0  0  0  0  0  0
  -14.0501   -7.5109  -12.2194 C   0  0  0  0  0  0  0  0  0  0  0  0
  -11.9061   -8.6361  -11.7253 C   0  0  0  0  0  0  0  0  0  0  0  0
  -11.8851  -10.0841  -12.2149 C   0  0  0  0  0  0  0  0  0  0  0  0
  -15.2299    2.5257  -16.3668 N   0  0  0  0  0  0  0  0  0  0  0  0
  -14.8968    1.7135  -16.8848 H   0  0  0  0  0  0  0  0  0  0  0  0
  -16.5492    2.3275  -15.9009 C   0  0  0  0  0  0  0  0  0  0  0  0
  -17.0055    1.0727  -15.4789 C   0  0  0  0  0  0  0  0  0  0  0  0
  -18.2929    0.9196  -14.9570 C   0  0  0  0  0  0  0  0  0  0  0  0
  -19.1290    2.0279  -14.8361 C   0  0  0  0  0  0  0  0  0  0  0  0
  -20.7130    1.8318  -14.1964 Cl  0  0  0  0  0  0  0  0  0  0  0  0
  -18.6884    3.2901  -15.2192 C   0  0  0  0  0  0  0  0  0  0  0  0
  -17.4038    3.4277  -15.7349 C   0  0  0  0  0  0  0  0  0  0  0  0
  -16.9732    4.6489  -16.0908 F   0  0  0  0  0  0  0  0  0  0  0  0
 27 28  1  0  0  0
 28 26  1  0  0  0
 26 29  1  0  0  0
 26 25  1  0  0  0
 29 30  1  0  0  0
 25 24  1  0  0  0
 24 20  1  0  0  0
 20 21  1  0  0  0
 20 23  1  0  0  0
 21 22  2  0  0  0
 21 13  1  0  0  0
 13 14  2  0  0  0
 13 18  1  0  0  0
 14 15  1  0  0  0
 15 16  1  0  0  0
 15 17  2  0  0  0
 17  1  1  0  0  0
 17 18  1  0  0  0
  1  2  2  0  0  0
  2  3  1  0  0  0
  2 11  1  0  0  0
  3  4  2  0  0  0
  3  5  1  0  0  0
  5  6  1  0  0  0
  5 12  1  0  0  0
  6  7  1  0  0  0
  6 11  2  0  0  0
  7  8  2  0  0  0
  8  9  1  0  0  0
  9 10  2  0  0  0
 10 31  1  0  0  0
 10 11  1  0  0  0
 31 33  1  0  0  0
 31 32  1  0  0  0
 33 34  1  0  0  0
 33 39  2  0  0  0
 34 35  2  0  0  0
 35 36  1  0  0  0
 36 37  1  0  0  0
 36 38  2  0  0  0
 38 39  1  0  0  0
 39 40  1  0  0  0
 18 19  1  0  0  0
M  END
> <minimizedAffinity>
-7.94577

$$$$
