CHEMBL207600


 27 31  0  0  0  0  0  0  0  0999 V2000
  -29.6458   -5.4049   -6.6577 C   0  0  0  0  0  0  0  0  0  0  0  0
  -28.7350   -5.1808   -5.6895 C   0  0  0  0  0  0  0  0  0  0  0  0
  -28.0109   -6.1670   -4.8329 C   0  0  0  0  0  0  0  0  0  0  0  0
  -27.9090   -7.3765   -4.9194 O   0  0  0  0  0  0  0  0  0  0  0  0
  -27.3949   -5.3739   -3.8801 N   0  0  0  0  0  0  0  0  0  0  0  0
  -27.4767   -4.0268   -4.0984 N   0  0  0  0  0  0  0  0  0  0  0  0
  -28.2229   -3.8689   -5.1694 C   0  0  0  0  0  0  0  0  0  0  0  0
  -26.7774   -5.7471   -3.1690 H   0  0  0  0  0  0  0  0  0  0  0  0
  -32.7588   -9.1849   -7.3111 C   0  0  0  0  0  0  0  0  0  0  0  0
  -31.5907   -8.3455   -7.4508 N   0  0  0  0  0  0  0  0  0  0  0  0
  -31.4731   -7.0824   -6.9481 C   0  0  0  0  0  0  0  0  0  0  0  0
  -30.1816   -6.6490   -7.1396 C   0  0  0  0  0  0  0  0  0  0  0  0
  -29.5288   -7.6416   -7.9611 C   0  0  0  0  0  0  0  0  0  0  0  0
  -28.2556   -7.7594   -8.5817 C   0  0  0  0  0  0  0  0  0  0  0  0
  -27.9867   -8.9304   -9.2825 C   0  0  0  0  0  0  0  0  0  0  0  0
  -28.8932   -9.9542   -9.3798 C   0  0  0  0  0  0  0  0  0  0  0  0
  -30.1423   -9.8920   -8.8056 C   0  0  0  0  0  0  0  0  0  0  0  0
  -30.4385   -8.7083   -8.1078 C   0  0  0  0  0  0  0  0  0  0  0  0
  -28.4268  -11.0137  -10.0958 O   0  0  0  0  0  0  0  0  0  0  0  0
  -27.1117  -10.5431  -10.4414 C   0  0  0  0  0  0  0  0  0  0  0  0
  -26.8267   -9.2175   -9.9416 O   0  0  0  0  0  0  0  0  0  0  0  0
  -28.4211   -2.5452   -5.7819 C   0  0  0  0  0  0  0  0  0  0  0  0
  -29.3060   -1.6449   -5.1932 C   0  0  0  0  0  0  0  0  0  0  0  0
  -29.4639   -0.3706   -5.6384 N   0  0  0  0  0  0  0  0  0  0  0  0
  -28.6929   -0.0304   -6.6936 C   0  0  0  0  0  0  0  0  0  0  0  0
  -27.8162   -0.9247   -7.2846 C   0  0  0  0  0  0  0  0  0  0  0  0
  -27.6587   -2.1961   -6.8448 N   0  0  0  0  0  0  0  0  0  0  0  0
  9 10  1  0  0  0
 10 11  1  0  0  0
 10 18  1  0  0  0
 11 12  2  0  0  0
 12  1  1  0  0  0
 12 13  1  0  0  0
  1  2  2  0  0  0
  2  3  1  0  0  0
  2  7  1  0  0  0
  3  4  2  0  0  0
  3  5  1  0  0  0
  5  6  1  0  0  0
  5  8  1  0  0  0
  6  7  2  0  0  0
  7 22  1  0  0  0
 22 23  1  0  0  0
 22 27  2  0  0  0
 23 24  2  0  0  0
 24 25  1  0  0  0
 25 26  2  0  0  0
 26 27  1  0  0  0
 13 14  1  0  0  0
 13 18  2  0  0  0
 14 15  2  0  0  0
 15 16  1  0  0  0
 15 21  1  0  0  0
 16 17  2  0  0  0
 16 19  1  0  0  0
 17 18  1  0  0  0
 19 20  1  0  0  0
 20 21  1  0  0  0
M  END
> <minimizedAffinity>
-9.22770

$$$$
