CHEMBL1254515


 36 39  0  0  0  0  0  0  0  0999 V2000
  -28.0035   -2.2841   -9.6522 N   0  0  0  0  0  0  0  0  0  0  0  0
  -26.7810   -1.9538  -10.2120 C   0  0  0  0  0  0  0  0  0  0  0  0
  -25.7995   -1.5696   -9.5753 O   0  0  0  0  0  0  0  0  0  0  0  0
  -26.7619   -2.0578  -11.5929 N   0  0  0  0  0  0  0  0  0  0  0  0
  -28.6711   -2.7458  -10.2556 H   0  0  0  0  0  0  0  0  0  0  0  0
  -27.6166   -1.7573  -12.0462 H   0  0  0  0  0  0  0  0  0  0  0  0
  -25.5631   -1.7270  -12.2969 C   0  0  0  0  0  0  0  0  0  0  0  0
  -24.3512   -1.5805  -11.6079 C   0  0  0  0  0  0  0  0  0  0  0  0
  -23.1978   -1.1496  -12.2701 C   0  0  0  0  0  0  0  0  0  0  0  0
  -23.2284   -0.8964  -13.6413 C   0  0  0  0  0  0  0  0  0  0  0  0
  -24.4307   -1.0477  -14.3402 C   0  0  0  0  0  0  0  0  0  0  0  0
  -25.5861   -1.4789  -13.6762 C   0  0  0  0  0  0  0  0  0  0  0  0
  -27.0620   -1.5900  -14.5703 Cl  0  0  0  0  0  0  0  0  0  0  0  0
  -22.1651   -0.3913  -14.3574 O   0  0  0  0  0  0  0  0  0  0  0  0
  -21.9161    0.9749  -14.3318 C   0  0  0  0  0  0  0  0  0  0  0  0
  -22.8409    1.8338  -13.8483 N   0  0  0  0  0  0  0  0  0  0  0  0
  -22.5376    3.1434  -13.8309 C   0  0  0  0  0  0  0  0  0  0  0  0
  -21.3978    3.7300  -14.2117 N   0  0  0  0  0  0  0  0  0  0  0  0
  -20.4684    2.8569  -14.6528 C   0  0  0  0  0  0  0  0  0  0  0  0
  -19.1562    3.1172  -15.1074 C   0  0  0  0  0  0  0  0  0  0  0  0
  -18.5925    1.9062  -15.4481 C   0  0  0  0  0  0  0  0  0  0  0  0
  -19.5284    0.9261  -15.2194 N   0  0  0  0  0  0  0  0  0  0  0  0
  -19.3120   -0.4817  -15.4699 C   0  0  0  0  0  0  0  0  0  0  0  0
  -20.6858    1.4857  -14.7263 C   0  0  0  0  0  0  0  0  0  0  0  0
  -28.9878   -1.8272   -5.5291 C   0  0  0  0  0  0  0  0  0  0  0  0
  -28.8762   -3.0921   -6.0982 C   0  0  0  0  0  0  0  0  0  0  0  0
  -28.5480   -3.2474   -7.4456 C   0  0  0  0  0  0  0  0  0  0  0  0
  -28.3391   -2.1497   -8.2792 C   0  0  0  0  0  0  0  0  0  0  0  0
  -28.4445   -0.8758   -7.7103 C   0  0  0  0  0  0  0  0  0  0  0  0
  -28.7466   -0.7013   -6.3299 C   0  0  0  0  0  0  0  0  0  0  0  0
  -28.7821    0.7065   -5.7769 C   0  0  0  0  0  0  0  0  0  0  0  0
  -27.9586    0.9706   -4.7262 F   0  0  0  0  0  0  0  0  0  0  0  0
  -28.4470    1.6266   -6.7310 F   0  0  0  0  0  0  0  0  0  0  0  0
  -30.0323    1.0637   -5.3617 F   0  0  0  0  0  0  0  0  0  0  0  0
  -29.2325   -2.7375   -3.3384 C   0  0  0  0  0  0  0  0  0  0  0  0
  -29.3196   -1.6203   -4.2202 O   0  0  0  0  0  0  0  0  0  0  0  0
 35 36  1  0  0  0
 36 25  1  0  0  0
 25 26  1  0  0  0
 25 30  2  0  0  0
 26 27  2  0  0  0
 27 28  1  0  0  0
 28  1  1  0  0  0
 28 29  2  0  0  0
  1  2  1  0  0  0
  1  5  1  0  0  0
  2  3  2  0  0  0
  2  4  1  0  0  0
  4  7  1  0  0  0
  4  6  1  0  0  0
  7  8  1  0  0  0
  7 12  2  0  0  0
  8  9  2  0  0  0
  9 10  1  0  0  0
 10 14  1  0  0  0
 10 11  2  0  0  0
 14 15  1  0  0  0
 15 16  1  0  0  0
 15 24  2  0  0  0
 16 17  2  0  0  0
 17 18  1  0  0  0
 18 19  2  0  0  0
 19 20  1  0  0  0
 19 24  1  0  0  0
 20 21  2  0  0  0
 21 22  1  0  0  0
 22 23  1  0  0  0
 22 24  1  0  0  0
 11 12  1  0  0  0
 12 13  1  0  0  0
 29 30  1  0  0  0
 30 31  1  0  0  0
 31 32  1  0  0  0
 31 33  1  0  0  0
 31 34  1  0  0  0
M  END
> <minimizedAffinity>
-11.30706

$$$$
