CHEMBL1242024


 24 26  0  0  0  0  0  0  0  0999 V2000
  -29.1956   -2.7745   -5.6231 C   0  0  0  0  0  0  0  0  0  0  0  0
  -29.3152   -1.5345   -5.1132 N   0  0  0  0  0  0  0  0  0  0  0  0
  -28.8394   -0.7184   -6.0770 N   0  0  0  0  0  0  0  0  0  0  0  0
  -28.3849   -1.3868   -7.1791 C   0  0  0  0  0  0  0  0  0  0  0  0
  -27.8401   -0.8435   -8.2797 N   0  0  0  0  0  0  0  0  0  0  0  0
  -27.5011   -1.7815   -9.1751 C   0  0  0  0  0  0  0  0  0  0  0  0
  -27.6685   -3.1123   -9.0789 N   0  0  0  0  0  0  0  0  0  0  0  0
  -28.2330   -3.6165   -7.9606 C   0  0  0  0  0  0  0  0  0  0  0  0
  -28.3900   -4.9954   -7.9450 N   0  0  0  0  0  0  0  0  0  0  0  0
  -28.6089   -2.7337   -6.9350 C   0  0  0  0  0  0  0  0  0  0  0  0
  -28.2328   -5.3839   -8.8679 H   0  0  0  0  0  0  0  0  0  0  0  0
  -29.2164   -5.3289   -7.4651 H   0  0  0  0  0  0  0  0  0  0  0  0
  -27.2490   -4.6787   -4.2690 C   0  0  0  0  0  0  0  0  0  0  0  0
  -28.7489   -4.8156   -4.1751 C   0  0  0  0  0  0  0  0  0  0  0  0
  -29.2637   -5.8521   -3.3709 C   0  0  0  0  0  0  0  0  0  0  0  0
  -30.6375   -6.0271   -3.2409 C   0  0  0  0  0  0  0  0  0  0  0  0
  -31.1618   -6.9960   -2.4390 O   0  0  0  0  0  0  0  0  0  0  0  0
  -31.5195   -5.2204   -3.9370 C   0  0  0  0  0  0  0  0  0  0  0  0
  -31.0216   -4.2179   -4.7672 C   0  0  0  0  0  0  0  0  0  0  0  0
  -29.6423   -3.9534   -4.8555 C   0  0  0  0  0  0  0  0  0  0  0  0
  -30.4337   -7.5247   -2.0737 H   0  0  0  0  0  0  0  0  0  0  0  0
  -28.8670    0.7288   -5.8925 C   0  0  0  0  0  0  0  0  0  0  0  0
  -30.2997    1.2628   -5.8548 C   0  0  0  0  0  0  0  0  0  0  0  0
  -28.0886    1.1547   -4.6488 C   0  0  0  0  0  0  0  0  0  0  0  0
 13 14  1  0  0  0
 14 15  1  0  0  0
 14 20  2  0  0  0
 15 16  2  0  0  0
 16 17  1  0  0  0
 16 18  1  0  0  0
 17 21  1  0  0  0
 18 19  2  0  0  0
 19 20  1  0  0  0
 20  1  1  0  0  0
  1  2  2  0  0  0
  1 10  1  0  0  0
  2  3  1  0  0  0
  3 22  1  0  0  0
  3  4  1  0  0  0
 22 23  1  0  0  0
 22 24  1  0  0  0
  4  5  1  0  0  0
  4 10  2  0  0  0
  5  6  2  0  0  0
  6  7  1  0  0  0
  7  8  2  0  0  0
  8  9  1  0  0  0
  8 10  1  0  0  0
  9 11  1  0  0  0
  9 12  1  0  0  0
M  END
> <minimizedAffinity>
-7.78154

$$$$
