CHEMBL1967720


 44 48  0  0  0  0  0  0  0  0999 V2000
  -26.5148   -1.3145  -11.9908 C   0  0  0  0  0  0  0  0  0  0  0  0
  -26.9151   -1.7343  -13.2474 C   0  0  0  0  0  0  0  0  0  0  0  0
  -26.2056   -1.5834  -14.3736 N   0  0  0  0  0  0  0  0  0  0  0  0
  -25.0169   -0.9548  -14.3373 C   0  0  0  0  0  0  0  0  0  0  0  0
  -24.3805   -0.9355  -15.5679 N   0  0  0  0  0  0  0  0  0  0  0  0
  -24.5159   -0.4024  -13.1173 C   0  0  0  0  0  0  0  0  0  0  0  0
  -23.3177    0.4067  -12.8158 C   0  0  0  0  0  0  0  0  0  0  0  0
  -23.2219    0.6918  -11.4705 C   0  0  0  0  0  0  0  0  0  0  0  0
  -24.4543   -0.0114  -10.5566 S   0  0  0  0  0  0  0  0  0  0  0  0
  -25.2756   -0.6322  -11.9475 C   0  0  0  0  0  0  0  0  0  0  0  0
  -24.8616   -1.5461  -16.2186 H   0  0  0  0  0  0  0  0  0  0  0  0
  -23.3745   -1.0251  -15.5345 H   0  0  0  0  0  0  0  0  0  0  0  0
  -22.3057    0.9458  -13.7351 C   0  0  0  0  0  0  0  0  0  0  0  0
  -21.4138    0.0822  -14.3609 C   0  0  0  0  0  0  0  0  0  0  0  0
  -20.3442    0.5714  -15.1014 C   0  0  0  0  0  0  0  0  0  0  0  0
  -20.2265    1.9310  -15.3829 C   0  0  0  0  0  0  0  0  0  0  0  0
  -21.1637    2.8086  -14.8376 C   0  0  0  0  0  0  0  0  0  0  0  0
  -22.1871    2.3201  -14.0067 C   0  0  0  0  0  0  0  0  0  0  0  0
  -19.1928    2.4322  -16.2024 N   0  0  0  0  0  0  0  0  0  0  0  0
  -17.8664    2.4840  -15.8118 C   0  0  0  0  0  0  0  0  0  0  0  0
  -17.4199    2.0002  -14.7780 O   0  0  0  0  0  0  0  0  0  0  0  0
  -17.0796    3.1761  -16.7226 N   0  0  0  0  0  0  0  0  0  0  0  0
  -19.3662    2.4907  -17.1956 H   0  0  0  0  0  0  0  0  0  0  0  0
  -17.5413    3.9666  -17.1526 H   0  0  0  0  0  0  0  0  0  0  0  0
  -15.6878    3.2683  -16.5424 C   0  0  0  0  0  0  0  0  0  0  0  0
  -14.8303    2.2225  -16.9233 C   0  0  0  0  0  0  0  0  0  0  0  0
  -13.4542    2.2962  -16.6895 C   0  0  0  0  0  0  0  0  0  0  0  0
  -12.9274    3.4218  -16.0678 C   0  0  0  0  0  0  0  0  0  0  0  0
  -13.7780    4.4596  -15.6976 C   0  0  0  0  0  0  0  0  0  0  0  0
  -13.2698    5.5292  -15.0691 F   0  0  0  0  0  0  0  0  0  0  0  0
  -15.1490    4.4031  -15.9467 C   0  0  0  0  0  0  0  0  0  0  0  0
  -28.1606   -2.6396   -9.0589 N   0  0  0  0  0  0  0  0  0  0  0  0
  -27.2450   -2.7460  -10.0743 C   0  0  0  0  0  0  0  0  0  0  0  0
  -27.3261   -1.5836  -10.8182 C   0  0  0  0  0  0  0  0  0  0  0  0
  -28.3599   -0.8580  -10.1841 C   0  0  0  0  0  0  0  0  0  0  0  0
  -28.8538   -1.4840   -9.1136 N   0  0  0  0  0  0  0  0  0  0  0  0
  -27.7160   -4.9385   -8.3772 C   0  0  0  0  0  0  0  0  0  0  0  0
  -28.5000   -3.6563   -8.0485 C   0  0  0  0  0  0  0  0  0  0  0  0
  -30.0074   -3.9798   -8.0381 C   0  0  0  0  0  0  0  0  0  0  0  0
  -28.1197   -3.1607   -6.6401 C   0  0  0  0  0  0  0  0  0  0  0  0
  -27.6051   -1.8959   -6.5336 N   0  0  0  0  0  0  0  0  0  0  0  0
  -28.2733   -3.8229   -5.6156 O   0  0  0  0  0  0  0  0  0  0  0  0
  -27.2236   -1.3986   -7.3296 H   0  0  0  0  0  0  0  0  0  0  0  0
  -27.2956   -1.6092   -5.6125 H   0  0  0  0  0  0  0  0  0  0  0  0
 37 38  1  0  0  0
 38 39  1  0  0  0
 38 40  1  0  0  0
 38 32  1  0  0  0
 40 41  1  0  0  0
 40 42  2  0  0  0
 41 43  1  0  0  0
 41 44  1  0  0  0
 32 33  1  0  0  0
 32 36  1  0  0  0
 33 34  2  0  0  0
 34  1  1  0  0  0
 34 35  1  0  0  0
  1  2  1  0  0  0
  1 10  2  0  0  0
  2  3  2  0  0  0
  3  4  1  0  0  0
  4  5  1  0  0  0
  4  6  2  0  0  0
  5 11  1  0  0  0
  5 12  1  0  0  0
  6  7  1  0  0  0
  6 10  1  0  0  0
  7 13  1  0  0  0
  7  8  2  0  0  0
 13 14  1  0  0  0
 13 18  2  0  0  0
 14 15  2  0  0  0
 15 16  1  0  0  0
 16 19  1  0  0  0
 16 17  2  0  0  0
 19 20  1  0  0  0
 19 23  1  0  0  0
 20 21  2  0  0  0
 20 22  1  0  0  0
 22 25  1  0  0  0
 22 24  1  0  0  0
 25 26  1  0  0  0
 25 31  2  0  0  0
 26 27  2  0  0  0
 27 28  1  0  0  0
 28 29  2  0  0  0
 29 30  1  0  0  0
 29 31  1  0  0  0
 17 18  1  0  0  0
  8  9  1  0  0  0
  9 10  1  0  0  0
 35 36  2  0  0  0
M  END
> <minimizedAffinity>
-5.15023

$$$$
