CHEMBL194236


 32 35  0  0  0  0  0  0  0  0999 V2000
  -28.6594   -2.9467   -6.9071 C   0  0  0  0  0  0  0  0  0  0  0  0
  -29.0848   -3.5997   -8.0614 C   0  0  0  0  0  0  0  0  0  0  0  0
  -28.6299   -3.2154   -9.3253 C   0  0  0  0  0  0  0  0  0  0  0  0
  -27.8334   -2.0843   -9.4966 C   0  0  0  0  0  0  0  0  0  0  0  0
  -27.4789   -1.3590   -8.3601 C   0  0  0  0  0  0  0  0  0  0  0  0
  -27.8538   -1.8102   -7.0804 C   0  0  0  0  0  0  0  0  0  0  0  0
  -29.6524   -1.1345   -4.5064 C   0  0  0  0  0  0  0  0  0  0  0  0
  -29.4993   -2.6255   -4.5611 C   0  0  0  0  0  0  0  0  0  0  0  0
  -29.9523   -3.4933   -3.1552 S   0  0  0  0  0  0  0  0  0  0  0  0
  -29.6249   -4.9894   -3.8705 C   0  0  0  0  0  0  0  0  0  0  0  0
  -29.8602   -6.1073   -3.1697 N   0  0  0  0  0  0  0  0  0  0  0  0
  -29.5603   -7.2123   -3.8483 C   0  0  0  0  0  0  0  0  0  0  0  0
  -29.0433   -7.2815   -5.0767 N   0  0  0  0  0  0  0  0  0  0  0  0
  -28.8026   -6.1385   -5.7496 C   0  0  0  0  0  0  0  0  0  0  0  0
  -28.2381   -6.3365   -7.0005 N   0  0  0  0  0  0  0  0  0  0  0  0
  -29.1206   -4.8883   -5.1603 C   0  0  0  0  0  0  0  0  0  0  0  0
  -29.0548   -3.4690   -5.5807 C   0  0  0  0  0  0  0  0  0  0  0  0
  -27.9479   -7.3025   -7.1129 H   0  0  0  0  0  0  0  0  0  0  0  0
  -27.5672   -5.6381   -7.2915 H   0  0  0  0  0  0  0  0  0  0  0  0
  -27.3580   -1.6491  -10.7558 N   0  0  0  0  0  0  0  0  0  0  0  0
  -26.0385   -1.3724  -11.0568 C   0  0  0  0  0  0  0  0  0  0  0  0
  -25.0955   -1.5272  -10.2884 O   0  0  0  0  0  0  0  0  0  0  0  0
  -25.8855   -0.8357  -12.3311 N   0  0  0  0  0  0  0  0  0  0  0  0
  -28.0219   -1.6037  -11.5147 H   0  0  0  0  0  0  0  0  0  0  0  0
  -26.6379   -0.2243  -12.6132 H   0  0  0  0  0  0  0  0  0  0  0  0
  -24.5858   -0.4576  -12.7460 C   0  0  0  0  0  0  0  0  0  0  0  0
  -24.1547    0.8735  -12.6394 C   0  0  0  0  0  0  0  0  0  0  0  0
  -22.9505    1.2794  -13.2210 C   0  0  0  0  0  0  0  0  0  0  0  0
  -22.1818    0.3469  -13.9048 C   0  0  0  0  0  0  0  0  0  0  0  0
  -20.6124    0.9084  -14.7969 Br  0  0  0  0  0  0  0  0  0  0  0  0
  -22.5751   -0.9924  -13.9666 C   0  0  0  0  0  0  0  0  0  0  0  0
  -23.7681   -1.4027  -13.3637 C   0  0  0  0  0  0  0  0  0  0  0  0
  7  8  1  0  0  0
  8  9  1  0  0  0
  8 17  2  0  0  0
  9 10  1  0  0  0
 10 11  1  0  0  0
 10 16  2  0  0  0
 11 12  2  0  0  0
 12 13  1  0  0  0
 13 14  2  0  0  0
 14 15  1  0  0  0
 14 16  1  0  0  0
 15 18  1  0  0  0
 15 19  1  0  0  0
 16 17  1  0  0  0
 17  1  1  0  0  0
  1  2  1  0  0  0
  1  6  2  0  0  0
  2  3  2  0  0  0
  3  4  1  0  0  0
  4 20  1  0  0  0
  4  5  2  0  0  0
 20 21  1  0  0  0
 20 24  1  0  0  0
 21 22  2  0  0  0
 21 23  1  0  0  0
 23 26  1  0  0  0
 23 25  1  0  0  0
 26 27  1  0  0  0
 26 32  2  0  0  0
 27 28  2  0  0  0
 28 29  1  0  0  0
 29 30  1  0  0  0
 29 31  2  0  0  0
 31 32  1  0  0  0
  5  6  1  0  0  0
M  END
> <minimizedAffinity>
-9.52876

$$$$
