CHEMBL407708


 39 43  0  0  0  0  0  0  0  0999 V2000
  -27.4690  -10.1241   -6.6124 C   0  0  0  0  0  0  0  0  0  0  0  0
  -28.2595  -10.1246   -7.7336 C   0  0  0  0  0  0  0  0  0  0  0  0
  -29.3693   -9.3840   -7.4660 N   0  0  0  0  0  0  0  0  0  0  0  0
  -30.3719   -9.2198   -8.3401 N   0  0  0  0  0  0  0  0  0  0  0  0
  -31.3150   -8.4471   -7.9190 C   0  0  0  0  0  0  0  0  0  0  0  0
  -31.3524   -7.8019   -6.7197 N   0  0  0  0  0  0  0  0  0  0  0  0
  -30.3894   -7.9528   -5.8525 C   0  0  0  0  0  0  0  0  0  0  0  0
  -29.2988   -8.8421   -6.2042 C   0  0  0  0  0  0  0  0  0  0  0  0
  -28.1157   -9.3060   -5.6036 C   0  0  0  0  0  0  0  0  0  0  0  0
  -24.1518  -11.4861   -6.8789 C   0  0  0  0  0  0  0  0  0  0  0  0
  -24.7035  -12.4170   -6.1370 N   0  0  0  0  0  0  0  0  0  0  0  0
  -25.9967  -12.0123   -5.9076 N   0  0  0  0  0  0  0  0  0  0  0  0
  -26.1687  -10.8700   -6.5449 C   0  0  0  0  0  0  0  0  0  0  0  0
  -25.0103  -10.4666   -7.1734 O   0  0  0  0  0  0  0  0  0  0  0  0
  -22.9238  -11.4039   -7.4255 N   0  0  0  0  0  0  0  0  0  0  0  0
  -22.7158  -12.1409   -8.0907 H   0  0  0  0  0  0  0  0  0  0  0  0
  -21.0924  -12.2792   -6.0824 C   0  0  0  0  0  0  0  0  0  0  0  0
  -21.8113  -11.0166   -6.5598 C   0  0  0  0  0  0  0  0  0  0  0  0
  -20.8285  -10.1098   -7.2994 C   0  0  0  0  0  0  0  0  0  0  0  0
  -27.4718   -9.0386   -4.2513 C   0  0  0  0  0  0  0  0  0  0  0  0
  -27.8085  -10.1461   -3.2500 C   0  0  0  0  0  0  0  0  0  0  0  0
  -25.9863   -8.7122   -4.2194 C   0  0  0  0  0  0  0  0  0  0  0  0
  -30.4814   -7.2747   -4.6543 N   0  0  0  0  0  0  0  0  0  0  0  0
  -31.2540   -7.6085   -4.0853 H   0  0  0  0  0  0  0  0  0  0  0  0
  -30.3567   -5.8640   -4.5416 C   0  0  0  0  0  0  0  0  0  0  0  0
  -29.4196   -5.1340   -5.2910 C   0  0  0  0  0  0  0  0  0  0  0  0
  -29.2889   -3.7406   -5.1428 C   0  0  0  0  0  0  0  0  0  0  0  0
  -30.0973   -3.0870   -4.2106 C   0  0  0  0  0  0  0  0  0  0  0  0
  -30.0127   -1.7597   -4.0301 F   0  0  0  0  0  0  0  0  0  0  0  0
  -31.0208   -3.7897   -3.4421 C   0  0  0  0  0  0  0  0  0  0  0  0
  -31.1344   -5.1655   -3.6080 C   0  0  0  0  0  0  0  0  0  0  0  0
  -32.0304   -5.8366   -2.8679 F   0  0  0  0  0  0  0  0  0  0  0  0
  -28.3046   -3.0249   -6.0086 C   0  0  0  0  0  0  0  0  0  0  0  0
  -27.3729   -2.4176   -5.4838 O   0  0  0  0  0  0  0  0  0  0  0  0
  -28.4924   -3.0865   -7.3743 N   0  0  0  0  0  0  0  0  0  0  0  0
  -29.2799   -3.6062   -7.7484 H   0  0  0  0  0  0  0  0  0  0  0  0
  -27.5564   -2.5308   -8.3025 C   0  0  0  0  0  0  0  0  0  0  0  0
  -27.5939   -1.0715   -8.6679 C   0  0  0  0  0  0  0  0  0  0  0  0
  -28.0220   -2.1042   -9.6680 C   0  0  0  0  0  0  0  0  0  0  0  0
 17 18  1  0  0  0
 18 19  1  0  0  0
 18 15  1  0  0  0
 15 10  1  0  0  0
 15 16  1  0  0  0
 10 11  2  0  0  0
 10 14  1  0  0  0
 11 12  1  0  0  0
 12 13  2  0  0  0
 13  1  1  0  0  0
 13 14  1  0  0  0
  1  2  2  0  0  0
  1  9  1  0  0  0
  2  3  1  0  0  0
  3  4  1  0  0  0
  3  8  1  0  0  0
  4  5  2  0  0  0
  5  6  1  0  0  0
  6  7  2  0  0  0
  7 23  1  0  0  0
  7  8  1  0  0  0
 23 25  1  0  0  0
 23 24  1  0  0  0
 25 26  1  0  0  0
 25 31  2  0  0  0
 26 27  2  0  0  0
 27 33  1  0  0  0
 27 28  1  0  0  0
 33 34  2  0  0  0
 33 35  1  0  0  0
 35 37  1  0  0  0
 35 36  1  0  0  0
 37 38  1  0  0  0
 37 39  1  0  0  0
 38 39  1  0  0  0
 28 29  1  0  0  0
 28 30  2  0  0  0
 30 31  1  0  0  0
 31 32  1  0  0  0
  8  9  2  0  0  0
  9 20  1  0  0  0
 20 21  1  0  0  0
 20 22  1  0  0  0
M  END
> <minimizedAffinity>
-8.42436

$$$$
