CHEMBL3946883


 37 40  0  0  0  0  0  0  0  0999 V2000
  -14.6529   -5.0252  -13.6639 C   0  0  0  0  0  0  0  0  0  0  0  0
  -15.9268   -4.4637  -13.5581 C   0  0  0  0  0  0  0  0  0  0  0  0
  -16.0864   -3.1773  -13.0484 C   0  0  0  0  0  0  0  0  0  0  0  0
  -14.9591   -2.5042  -12.6181 C   0  0  0  0  0  0  0  0  0  0  0  0
  -13.7096   -3.0205  -12.6744 N   0  0  0  0  0  0  0  0  0  0  0  0
  -13.5887   -4.2626  -13.1921 C   0  0  0  0  0  0  0  0  0  0  0  0
  -13.9144   -5.6002  -16.3799 O   0  0  0  0  0  0  0  0  0  0  0  0
  -14.0076   -6.4956  -15.5527 C   0  0  0  0  0  0  0  0  0  0  0  0
  -14.3828   -6.2900  -14.2363 N   0  0  0  0  0  0  0  0  0  0  0  0
  -13.7213   -7.8281  -15.8028 N   0  0  0  0  0  0  0  0  0  0  0  0
  -14.2384   -7.0546  -13.5944 H   0  0  0  0  0  0  0  0  0  0  0  0
  -13.9760   -8.4957  -15.0906 H   0  0  0  0  0  0  0  0  0  0  0  0
  -13.2017   -8.3493  -17.0094 C   0  0  0  0  0  0  0  0  0  0  0  0
  -12.0488   -7.8672  -17.6253 C   0  0  0  0  0  0  0  0  0  0  0  0
  -11.6008   -8.4115  -18.8285 C   0  0  0  0  0  0  0  0  0  0  0  0
  -12.2885   -9.4622  -19.4359 C   0  0  0  0  0  0  0  0  0  0  0  0
  -11.6419  -10.0359  -20.9267 Cl  0  0  0  0  0  0  0  0  0  0  0  0
  -13.4337   -9.9878  -18.8319 C   0  0  0  0  0  0  0  0  0  0  0  0
  -13.8775   -9.4163  -17.6120 C   0  0  0  0  0  0  0  0  0  0  0  0
  -14.2296  -11.1408  -19.3840 C   0  0  0  0  0  0  0  0  0  0  0  0
  -15.3051  -11.5447  -18.6623 F   0  0  0  0  0  0  0  0  0  0  0  0
  -14.7070  -10.8658  -20.6326 F   0  0  0  0  0  0  0  0  0  0  0  0
  -13.4554  -12.2554  -19.5351 F   0  0  0  0  0  0  0  0  0  0  0  0
  -15.1516   -1.2374  -12.0988 O   0  0  0  0  0  0  0  0  0  0  0  0
  -15.3697   -0.2143  -12.9942 C   0  0  0  0  0  0  0  0  0  0  0  0
  -16.6214    0.3333  -13.2034 C   0  0  0  0  0  0  0  0  0  0  0  0
  -16.7192    1.2831  -14.1928 C   0  0  0  0  0  0  0  0  0  0  0  0
  -15.6602    1.6546  -14.9192 N   0  0  0  0  0  0  0  0  0  0  0  0
  -14.4973    1.0493  -14.6553 C   0  0  0  0  0  0  0  0  0  0  0  0
  -14.2947    0.1071  -13.7314 N   0  0  0  0  0  0  0  0  0  0  0  0
  -17.9894    1.8303  -14.4375 N   0  0  0  0  0  0  0  0  0  0  0  0
  -19.0295    1.1541  -15.0324 C   0  0  0  0  0  0  0  0  0  0  0  0
  -19.0123    0.0173  -15.4809 O   0  0  0  0  0  0  0  0  0  0  0  0
  -18.1613    2.7604  -14.0939 H   0  0  0  0  0  0  0  0  0  0  0  0
  -20.3321    1.8853  -15.1003 C   0  0  0  0  0  0  0  0  0  0  0  0
  -20.7700    3.0535  -14.2541 C   0  0  0  0  0  0  0  0  0  0  0  0
  -21.3421    1.6906  -13.9906 C   0  0  0  0  0  0  0  0  0  0  0  0
  7  8  2  0  0  0
  8  9  1  0  0  0
  8 10  1  0  0  0
  9  1  1  0  0  0
  9 11  1  0  0  0
  1  2  1  0  0  0
  1  6  2  0  0  0
  2  3  2  0  0  0
  3  4  1  0  0  0
  4 24  1  0  0  0
  4  5  2  0  0  0
 24 25  1  0  0  0
 25 26  1  0  0  0
 25 30  2  0  0  0
 26 27  2  0  0  0
 27 31  1  0  0  0
 27 28  1  0  0  0
 31 32  1  0  0  0
 31 34  1  0  0  0
 32 33  2  0  0  0
 32 35  1  0  0  0
 35 36  1  0  0  0
 35 37  1  0  0  0
 36 37  1  0  0  0
 28 29  2  0  0  0
 29 30  1  0  0  0
  5  6  1  0  0  0
 10 13  1  0  0  0
 10 12  1  0  0  0
 13 14  1  0  0  0
 13 19  2  0  0  0
 14 15  2  0  0  0
 15 16  1  0  0  0
 16 17  1  0  0  0
 16 18  2  0  0  0
 18 20  1  0  0  0
 18 19  1  0  0  0
 20 21  1  0  0  0
 20 22  1  0  0  0
 20 23  1  0  0  0
M  END
> <minimizedAffinity>
-7.53000

$$$$
