CHEMBL3952496


 36 40  0  0  0  0  0  0  0  0999 V2000
  -29.1719   -7.6134   -3.9371 C   0  0  0  0  0  0  0  0  0  0  0  0
  -29.7173   -7.2456   -2.8969 O   0  0  0  0  0  0  0  0  0  0  0  0
  -29.1394   -6.6899   -5.1131 C   0  0  0  0  0  0  0  0  0  0  0  0
  -29.8627   -6.8902   -6.3059 C   0  0  0  0  0  0  0  0  0  0  0  0
  -29.7924   -5.9742   -7.3816 C   0  0  0  0  0  0  0  0  0  0  0  0
  -29.1332   -4.7520   -7.1549 C   0  0  0  0  0  0  0  0  0  0  0  0
  -28.8686   -3.5028   -7.8172 C   0  0  0  0  0  0  0  0  0  0  0  0
  -29.1599   -2.5629   -6.8898 N   0  0  0  0  0  0  0  0  0  0  0  0
  -28.6450   -3.1435   -5.7867 N   0  0  0  0  0  0  0  0  0  0  0  0
  -28.6783   -4.5089   -5.8614 C   0  0  0  0  0  0  0  0  0  0  0  0
  -28.4655   -5.4848   -4.9025 C   0  0  0  0  0  0  0  0  0  0  0  0
  -28.4609   -2.5640   -4.9710 H   0  0  0  0  0  0  0  0  0  0  0  0
  -27.6972   -3.1356   -8.6061 C   0  0  0  0  0  0  0  0  0  0  0  0
  -27.4302   -1.8888   -9.0427 C   0  0  0  0  0  0  0  0  0  0  0  0
  -26.8918   -1.6366  -10.4016 C   0  0  0  0  0  0  0  0  0  0  0  0
  -27.7203   -1.7649  -11.5126 C   0  0  0  0  0  0  0  0  0  0  0  0
  -27.1525   -1.7617  -12.7884 C   0  0  0  0  0  0  0  0  0  0  0  0
  -25.7758   -1.6403  -12.9250 C   0  0  0  0  0  0  0  0  0  0  0  0
  -25.0215   -1.5103  -11.7735 C   0  0  0  0  0  0  0  0  0  0  0  0
  -25.5478   -1.5011  -10.5259 N   0  0  0  0  0  0  0  0  0  0  0  0
  -26.7859  -10.4522   -4.5640 C   0  0  0  0  0  0  0  0  0  0  0  0
  -27.5039  -11.5244   -4.0255 C   0  0  0  0  0  0  0  0  0  0  0  0
  -28.7958  -11.3478   -3.5218 C   0  0  0  0  0  0  0  0  0  0  0  0
  -29.3703  -10.0766   -3.5188 C   0  0  0  0  0  0  0  0  0  0  0  0
  -28.6286   -8.9805   -3.9708 C   0  0  0  0  0  0  0  0  0  0  0  0
  -27.3440   -9.1707   -4.5127 C   0  0  0  0  0  0  0  0  0  0  0  0
  -24.1598  -10.6088   -3.2548 O   0  0  0  0  0  0  0  0  0  0  0  0
  -24.3044  -10.6301   -4.4684 C   0  0  0  0  0  0  0  0  0  0  0  0
  -25.5136  -10.5915   -5.1548 N   0  0  0  0  0  0  0  0  0  0  0  0
  -25.4914  -10.8295   -6.1385 H   0  0  0  0  0  0  0  0  0  0  0  0
  -23.0907  -10.7668   -5.3079 C   0  0  0  0  0  0  0  0  0  0  0  0
  -22.8229   -9.7569   -6.2415 C   0  0  0  0  0  0  0  0  0  0  0  0
  -21.7206   -9.8642   -7.0916 C   0  0  0  0  0  0  0  0  0  0  0  0
  -20.8939  -10.9840   -7.0142 C   0  0  0  0  0  0  0  0  0  0  0  0
  -21.1651  -11.9959   -6.0908 C   0  0  0  0  0  0  0  0  0  0  0  0
  -22.2654  -11.8940   -5.2375 C   0  0  0  0  0  0  0  0  0  0  0  0
 27 28  2  0  0  0
 28 29  1  0  0  0
 28 31  1  0  0  0
 29 21  1  0  0  0
 29 30  1  0  0  0
 21 22  1  0  0  0
 21 26  2  0  0  0
 22 23  2  0  0  0
 23 24  1  0  0  0
 24 25  2  0  0  0
 25  1  1  0  0  0
 25 26  1  0  0  0
  1  2  2  0  0  0
  1  3  1  0  0  0
  3  4  1  0  0  0
  3 11  2  0  0  0
  4  5  2  0  0  0
  5  6  1  0  0  0
  6  7  1  0  0  0
  6 10  2  0  0  0
  7 13  1  0  0  0
  7  8  2  0  0  0
 13 14  2  0  0  0
 14 15  1  0  0  0
 15 16  1  0  0  0
 15 20  2  0  0  0
 16 17  2  0  0  0
 17 18  1  0  0  0
 18 19  2  0  0  0
 19 20  1  0  0  0
  8  9  1  0  0  0
  9 10  1  0  0  0
  9 12  1  0  0  0
 10 11  1  0  0  0
 31 32  1  0  0  0
 31 36  2  0  0  0
 32 33  2  0  0  0
 33 34  1  0  0  0
 34 35  2  0  0  0
 35 36  1  0  0  0
M  END
> <minimizedAffinity>
-9.75392

$$$$
