CHEMBL1242664


 27 31  0  0  0  0  0  0  0  0999 V2000
  -29.3400   -6.8718   -3.0129 N   0  0  0  0  0  0  0  0  0  0  0  0
  -29.0040   -7.9009   -3.8829 C   0  0  0  0  0  0  0  0  0  0  0  0
  -28.8202   -9.1075   -3.3096 N   0  0  0  0  0  0  0  0  0  0  0  0
  -28.5330  -10.1604   -4.0950 C   0  0  0  0  0  0  0  0  0  0  0  0
  -28.4134  -10.1810   -5.4292 N   0  0  0  0  0  0  0  0  0  0  0  0
  -28.5922   -8.9581   -5.9591 C   0  0  0  0  0  0  0  0  0  0  0  0
  -28.8657   -7.7835   -5.2773 C   0  0  0  0  0  0  0  0  0  0  0  0
  -28.9167   -6.7733   -6.2957 C   0  0  0  0  0  0  0  0  0  0  0  0
  -28.7588   -7.3188   -7.5191 N   0  0  0  0  0  0  0  0  0  0  0  0
  -28.5412   -8.6290   -7.2852 N   0  0  0  0  0  0  0  0  0  0  0  0
  -29.5881   -7.2521   -2.1061 H   0  0  0  0  0  0  0  0  0  0  0  0
  -29.9922   -6.1969   -3.3932 H   0  0  0  0  0  0  0  0  0  0  0  0
  -29.0978   -5.3172   -6.1731 C   0  0  0  0  0  0  0  0  0  0  0  0
  -30.1233   -4.6573   -6.8601 C   0  0  0  0  0  0  0  0  0  0  0  0
  -30.2945   -3.2680   -6.7778 C   0  0  0  0  0  0  0  0  0  0  0  0
  -29.4719   -2.5262   -5.9149 C   0  0  0  0  0  0  0  0  0  0  0  0
  -29.4099   -1.1550   -5.5473 C   0  0  0  0  0  0  0  0  0  0  0  0
  -28.4293   -1.0235   -4.5912 C   0  0  0  0  0  0  0  0  0  0  0  0
  -27.8657   -2.2577   -4.3958 N   0  0  0  0  0  0  0  0  0  0  0  0
  -28.4858   -3.1946   -5.1919 C   0  0  0  0  0  0  0  0  0  0  0  0
  -28.2625   -4.5754   -5.3147 C   0  0  0  0  0  0  0  0  0  0  0  0
  -27.1247   -2.4636   -3.7402 H   0  0  0  0  0  0  0  0  0  0  0  0
  -28.2776   -9.5367   -8.3836 C   0  0  0  0  0  0  0  0  0  0  0  0
  -27.1483   -9.0829   -9.3103 C   0  0  0  0  0  0  0  0  0  0  0  0
  -27.3901   -9.8215  -10.6253 C   0  0  0  0  0  0  0  0  0  0  0  0
  -28.8230  -10.3492  -10.5745 C   0  0  0  0  0  0  0  0  0  0  0  0
  -29.4565   -9.7252   -9.3375 C   0  0  0  0  0  0  0  0  0  0  0  0
  1  2  1  0  0  0
  1 11  1  0  0  0
  1 12  1  0  0  0
  2  3  1  0  0  0
  2  7  2  0  0  0
  3  4  2  0  0  0
  4  5  1  0  0  0
  5  6  2  0  0  0
  6  7  1  0  0  0
  6 10  1  0  0  0
  7  8  1  0  0  0
  8 13  1  0  0  0
  8  9  2  0  0  0
 13 14  1  0  0  0
 13 21  2  0  0  0
 14 15  2  0  0  0
 15 16  1  0  0  0
 16 17  1  0  0  0
 16 20  2  0  0  0
 17 18  2  0  0  0
 18 19  1  0  0  0
 19 20  1  0  0  0
 19 22  1  0  0  0
 20 21  1  0  0  0
  9 10  1  0  0  0
 10 23  1  0  0  0
 23 24  1  0  0  0
 23 27  1  0  0  0
 24 25  1  0  0  0
 25 26  1  0  0  0
 26 27  1  0  0  0
M  END
> <minimizedAffinity>
-8.34250

$$$$
