CHEMBL1996817


 21 23  0  0  0  0  0  0  0  0999 V2000
  -29.0617   -4.8610   -6.9142 C   0  0  0  0  0  0  0  0  0  0  0  0
  -29.1100   -6.1356   -7.3722 N   0  0  0  0  0  0  0  0  0  0  0  0
  -28.9773   -7.1181   -6.4684 C   0  0  0  0  0  0  0  0  0  0  0  0
  -28.8322   -7.0142   -5.1380 N   0  0  0  0  0  0  0  0  0  0  0  0
  -28.7795   -5.7312   -4.7477 C   0  0  0  0  0  0  0  0  0  0  0  0
  -28.6423   -5.3258   -3.4493 N   0  0  0  0  0  0  0  0  0  0  0  0
  -28.5905   -3.9577   -3.4047 C   0  0  0  0  0  0  0  0  0  0  0  0
  -28.7041   -3.4740   -4.6931 C   0  0  0  0  0  0  0  0  0  0  0  0
  -28.8553   -4.6112   -5.5562 C   0  0  0  0  0  0  0  0  0  0  0  0
  -28.5936   -5.9521   -2.6626 H   0  0  0  0  0  0  0  0  0  0  0  0
  -28.6952   -2.0555   -5.0084 C   0  0  0  0  0  0  0  0  0  0  0  0
  -29.8879   -1.3703   -5.2691 C   0  0  0  0  0  0  0  0  0  0  0  0
  -29.8849   -0.0025   -5.5227 C   0  0  0  0  0  0  0  0  0  0  0  0
  -28.6794    0.6964   -5.5324 C   0  0  0  0  0  0  0  0  0  0  0  0
  -27.4835    0.0272   -5.2978 C   0  0  0  0  0  0  0  0  0  0  0  0
  -27.4856   -1.3448   -5.0487 C   0  0  0  0  0  0  0  0  0  0  0  0
  -29.1406   -3.8284   -7.8226 O   0  0  0  0  0  0  0  0  0  0  0  0
  -27.8879   -3.4890   -8.4070 C   0  0  0  0  0  0  0  0  0  0  0  0
  -27.9576   -2.0233   -8.8326 C   0  0  0  0  0  0  0  0  0  0  0  0
  -27.6358   -1.3562  -11.2401 C   0  0  0  0  0  0  0  0  0  0  0  0
  -26.9467   -1.6965   -9.9278 C   0  0  0  0  0  0  0  0  0  0  0  0
 20 21  1  0  0  0
 21 19  1  0  0  0
 19 18  1  0  0  0
 18 17  1  0  0  0
 17  1  1  0  0  0
  1  2  1  0  0  0
  1  9  2  0  0  0
  2  3  2  0  0  0
  3  4  1  0  0  0
  4  5  2  0  0  0
  5  6  1  0  0  0
  5  9  1  0  0  0
  6  7  1  0  0  0
  6 10  1  0  0  0
  7  8  2  0  0  0
  8 11  1  0  0  0
  8  9  1  0  0  0
 11 12  1  0  0  0
 11 16  2  0  0  0
 12 13  2  0  0  0
 13 14  1  0  0  0
 14 15  2  0  0  0
 15 16  1  0  0  0
M  END
> <minimizedAffinity>
-7.60024

$$$$
