CHEMBL4570955


 31 34  0  0  0  0  0  0  0  0999 V2000
  -14.9674    2.0462  -15.4447 C   0  0  0  0  0  0  0  0  0  0  0  0
  -14.1804    3.1133  -15.6592 N   0  0  0  0  0  0  0  0  0  0  0  0
  -14.8229    4.2604  -15.9384 C   0  0  0  0  0  0  0  0  0  0  0  0
  -16.1919    4.3711  -16.0073 C   0  0  0  0  0  0  0  0  0  0  0  0
  -16.9195    3.2237  -15.7617 C   0  0  0  0  0  0  0  0  0  0  0  0
  -16.3057    2.0652  -15.4831 N   0  0  0  0  0  0  0  0  0  0  0  0
  -18.3194    3.2843  -15.9214 N   0  0  0  0  0  0  0  0  0  0  0  0
  -18.6312    4.1887  -16.2521 H   0  0  0  0  0  0  0  0  0  0  0  0
  -19.3290    2.5503  -15.2680 C   0  0  0  0  0  0  0  0  0  0  0  0
  -19.3818    1.1550  -15.2628 C   0  0  0  0  0  0  0  0  0  0  0  0
  -20.4874    0.4636  -14.7534 C   0  0  0  0  0  0  0  0  0  0  0  0
  -21.6075    1.1336  -14.2565 C   0  0  0  0  0  0  0  0  0  0  0  0
  -21.5385    2.5345  -14.2428 C   0  0  0  0  0  0  0  0  0  0  0  0
  -20.4280    3.2310  -14.7391 C   0  0  0  0  0  0  0  0  0  0  0  0
  -22.7307    0.4678  -13.8247 N   0  0  0  0  0  0  0  0  0  0  0  0
  -23.8535    1.1221  -13.1384 C   0  0  0  0  0  0  0  0  0  0  0  0
  -24.1163    0.4576  -11.7782 C   0  0  0  0  0  0  0  0  0  0  0  0
  -24.2825   -0.9661  -11.9008 O   0  0  0  0  0  0  0  0  0  0  0  0
  -23.1013   -1.5518  -12.4710 C   0  0  0  0  0  0  0  0  0  0  0  0
  -22.8167   -0.9998  -13.8771 C   0  0  0  0  0  0  0  0  0  0  0  0
  -14.2172    0.4477  -15.2662 S   0  0  0  0  0  0  0  0  0  0  0  0
  -14.1053    0.3607  -13.4577 C   0  0  0  0  0  0  0  0  0  0  0  0
  -16.3384    0.7261  -12.5847 O   0  0  0  0  0  0  0  0  0  0  0  0
  -15.4230   -0.0615  -12.8349 C   0  0  0  0  0  0  0  0  0  0  0  0
  -15.6879   -1.5109  -12.6195 C   0  0  0  0  0  0  0  0  0  0  0  0
  -15.9559   -2.2973  -13.7504 C   0  0  0  0  0  0  0  0  0  0  0  0
  -16.2419   -3.6566  -13.6160 C   0  0  0  0  0  0  0  0  0  0  0  0
  -16.2683   -4.2316  -12.3484 C   0  0  0  0  0  0  0  0  0  0  0  0
  -16.6437   -5.9008  -12.1764 Cl  0  0  0  0  0  0  0  0  0  0  0  0
  -16.0082   -3.4587  -11.2167 C   0  0  0  0  0  0  0  0  0  0  0  0
  -15.7181   -2.0959  -11.3489 C   0  0  0  0  0  0  0  0  0  0  0  0
 23 24  2  0  0  0
 24 22  1  0  0  0
 24 25  1  0  0  0
 22 21  1  0  0  0
 21  1  1  0  0  0
  1  2  1  0  0  0
  1  6  2  0  0  0
  2  3  2  0  0  0
  3  4  1  0  0  0
  4  5  2  0  0  0
  5  7  1  0  0  0
  5  6  1  0  0  0
  7  9  1  0  0  0
  7  8  1  0  0  0
  9 10  1  0  0  0
  9 14  2  0  0  0
 10 11  2  0  0  0
 11 12  1  0  0  0
 12 15  1  0  0  0
 12 13  2  0  0  0
 15 16  1  0  0  0
 15 20  1  0  0  0
 16 17  1  0  0  0
 17 18  1  0  0  0
 18 19  1  0  0  0
 19 20  1  0  0  0
 13 14  1  0  0  0
 25 26  1  0  0  0
 25 31  2  0  0  0
 26 27  2  0  0  0
 27 28  1  0  0  0
 28 29  1  0  0  0
 28 30  2  0  0  0
 30 31  1  0  0  0
M  END
> <minimizedAffinity>
-9.38430

$$$$
