CHEMBL4473253


 33 37  0  0  0  0  0  0  0  0999 V2000
  -17.2392    2.0892  -15.1639 N   0  0  0  0  0  0  0  0  0  0  0  0
  -17.1785    0.9566  -14.4099 C   0  0  0  0  0  0  0  0  0  0  0  0
  -15.8400    0.6277  -14.3940 C   0  0  0  0  0  0  0  0  0  0  0  0
  -15.1459    1.5661  -15.1173 N   0  0  0  0  0  0  0  0  0  0  0  0
  -16.0131    2.4657  -15.5747 N   0  0  0  0  0  0  0  0  0  0  0  0
  -15.2524   -0.5162  -13.7163 C   0  0  0  0  0  0  0  0  0  0  0  0
  -15.9739   -1.1928  -12.7304 C   0  0  0  0  0  0  0  0  0  0  0  0
  -15.4375   -2.2953  -12.0643 C   0  0  0  0  0  0  0  0  0  0  0  0
  -14.1590   -2.7630  -12.3588 C   0  0  0  0  0  0  0  0  0  0  0  0
  -13.4221   -2.0915  -13.3423 C   0  0  0  0  0  0  0  0  0  0  0  0
  -13.9639   -0.9779  -14.0173 C   0  0  0  0  0  0  0  0  0  0  0  0
  -13.5842   -3.8758  -11.6993 N   0  0  0  0  0  0  0  0  0  0  0  0
  -13.3264   -3.9725  -10.3417 C   0  0  0  0  0  0  0  0  0  0  0  0
  -13.5818   -3.1338   -9.4868 O   0  0  0  0  0  0  0  0  0  0  0  0
  -13.3276   -4.6599  -12.2804 H   0  0  0  0  0  0  0  0  0  0  0  0
  -12.6518   -5.2107   -9.8597 C   0  0  0  0  0  0  0  0  0  0  0  0
  -11.1572   -5.1775   -9.6380 C   0  0  0  0  0  0  0  0  0  0  0  0
  -11.7514   -6.1318  -10.6342 C   0  0  0  0  0  0  0  0  0  0  0  0
  -18.4162    2.8956  -15.4403 C   0  0  0  0  0  0  0  0  0  0  0  0
  -22.0885    0.9504  -14.1209 C   0  0  0  0  0  0  0  0  0  0  0  0
  -21.8346    2.3038  -13.8377 C   0  0  0  0  0  0  0  0  0  0  0  0
  -20.6583    2.9352  -14.2634 C   0  0  0  0  0  0  0  0  0  0  0  0
  -19.6891    2.2266  -14.9826 C   0  0  0  0  0  0  0  0  0  0  0  0
  -19.9398    0.8858  -15.2923 C   0  0  0  0  0  0  0  0  0  0  0  0
  -21.1203    0.2633  -14.8732 C   0  0  0  0  0  0  0  0  0  0  0  0
  -25.4542   -1.1970  -12.6720 C   0  0  0  0  0  0  0  0  0  0  0  0
  -24.8740   -0.2630  -11.8288 C   0  0  0  0  0  0  0  0  0  0  0  0
  -23.7898    0.4797  -12.3062 C   0  0  0  0  0  0  0  0  0  0  0  0
  -23.2915    0.2670  -13.5999 C   0  0  0  0  0  0  0  0  0  0  0  0
  -23.9790   -0.6852  -14.3584 C   0  0  0  0  0  0  0  0  0  0  0  0
  -25.0416   -1.4092  -13.9348 N   0  0  0  0  0  0  0  0  0  0  0  0
  -26.6398   -1.7573  -10.7469 C   0  0  0  0  0  0  0  0  0  0  0  0
  -26.4816   -1.9521  -12.1502 O   0  0  0  0  0  0  0  0  0  0  0  0
 32 33  1  0  0  0
 33 26  1  0  0  0
 26 27  1  0  0  0
 26 31  2  0  0  0
 27 28  2  0  0  0
 28 29  1  0  0  0
 29 20  1  0  0  0
 29 30  2  0  0  0
 20 21  1  0  0  0
 20 25  2  0  0  0
 21 22  2  0  0  0
 22 23  1  0  0  0
 23 19  1  0  0  0
 23 24  2  0  0  0
 19  1  1  0  0  0
  1  2  1  0  0  0
  1  5  1  0  0  0
  2  3  2  0  0  0
  3  6  1  0  0  0
  3  4  1  0  0  0
  6  7  1  0  0  0
  6 11  2  0  0  0
  7  8  2  0  0  0
  8  9  1  0  0  0
  9 12  1  0  0  0
  9 10  2  0  0  0
 12 13  1  0  0  0
 12 15  1  0  0  0
 13 14  2  0  0  0
 13 16  1  0  0  0
 16 17  1  0  0  0
 16 18  1  0  0  0
 17 18  1  0  0  0
 10 11  1  0  0  0
  4  5  2  0  0  0
 24 25  1  0  0  0
 30 31  1  0  0  0
M  END
> <minimizedAffinity>
-10.05577

$$$$
