CHEMBL69071


 40 44  0  0  0  0  0  0  0  0999 V2000
  -15.4404   -1.3095  -13.8455 C   0  0  0  0  0  0  0  0  0  0  0  0
  -14.5178   -0.3512  -14.0547 C   0  0  0  0  0  0  0  0  0  0  0  0
  -13.0868   -0.2516  -13.5791 C   0  0  0  0  0  0  0  0  0  0  0  0
  -12.4843   -1.0106  -12.8445 O   0  0  0  0  0  0  0  0  0  0  0  0
  -12.5810    0.8914  -14.1585 N   0  0  0  0  0  0  0  0  0  0  0  0
  -13.5331    1.5411  -14.9236 C   0  0  0  0  0  0  0  0  0  0  0  0
  -13.2792    2.6728  -15.5785 N   0  0  0  0  0  0  0  0  0  0  0  0
  -14.3339    3.1336  -16.2559 C   0  0  0  0  0  0  0  0  0  0  0  0
  -15.5493    2.5586  -16.3073 N   0  0  0  0  0  0  0  0  0  0  0  0
  -15.7498    1.4088  -15.6196 C   0  0  0  0  0  0  0  0  0  0  0  0
  -14.7313    0.8508  -14.8877 C   0  0  0  0  0  0  0  0  0  0  0  0
  -11.6388    1.2310  -14.0490 H   0  0  0  0  0  0  0  0  0  0  0  0
  -16.2219   -1.8119  -10.7185 C   0  0  0  0  0  0  0  0  0  0  0  0
  -15.6998   -2.7562  -11.7430 C   0  0  0  0  0  0  0  0  0  0  0  0
  -15.4697   -4.1373  -11.5068 C   0  0  0  0  0  0  0  0  0  0  0  0
  -15.0678   -4.7285  -12.6877 C   0  0  0  0  0  0  0  0  0  0  0  0
  -14.8919   -3.6944  -13.5806 N   0  0  0  0  0  0  0  0  0  0  0  0
  -15.3716   -2.5074  -13.0733 C   0  0  0  0  0  0  0  0  0  0  0  0
  -14.5312   -3.8200  -14.5196 H   0  0  0  0  0  0  0  0  0  0  0  0
  -14.8172   -6.1436  -12.8927 C   0  0  0  0  0  0  0  0  0  0  0  0
  -15.3210   -6.7222  -13.8566 O   0  0  0  0  0  0  0  0  0  0  0  0
  -13.9513   -6.8188  -12.0371 N   0  0  0  0  0  0  0  0  0  0  0  0
  -13.2276   -6.2524  -10.8960 C   0  0  0  0  0  0  0  0  0  0  0  0
  -11.7397   -6.6631  -10.8561 C   0  0  0  0  0  0  0  0  0  0  0  0
  -11.1309   -6.1991   -9.5332 C   0  0  0  0  0  0  0  0  0  0  0  0
  -11.5288   -8.1145  -11.0230 N   0  0  0  0  0  0  0  0  0  0  0  0
  -12.1988   -8.5689  -12.2637 C   0  0  0  0  0  0  0  0  0  0  0  0
  -11.9703  -10.0684  -12.4302 C   0  0  0  0  0  0  0  0  0  0  0  0
  -13.7115   -8.2469  -12.2567 C   0  0  0  0  0  0  0  0  0  0  0  0
  -11.9446   -8.6028  -10.2298 H   0  0  0  0  0  0  0  0  0  0  0  0
  -17.0284    0.8134  -15.6544 N   0  0  0  0  0  0  0  0  0  0  0  0
  -16.9706   -0.1458  -15.3246 H   0  0  0  0  0  0  0  0  0  0  0  0
  -18.2325    1.4557  -15.2991 C   0  0  0  0  0  0  0  0  0  0  0  0
  -18.2651    2.8474  -15.1426 C   0  0  0  0  0  0  0  0  0  0  0  0
  -19.4465    3.4879  -14.7535 C   0  0  0  0  0  0  0  0  0  0  0  0
  -20.5886    2.7388  -14.4934 C   0  0  0  0  0  0  0  0  0  0  0  0
  -21.7095    3.3774  -14.1288 F   0  0  0  0  0  0  0  0  0  0  0  0
  -20.5625    1.3534  -14.6000 C   0  0  0  0  0  0  0  0  0  0  0  0
  -21.9606    0.4100  -14.2565 Cl  0  0  0  0  0  0  0  0  0  0  0  0
  -19.3856    0.7155  -14.9879 C   0  0  0  0  0  0  0  0  0  0  0  0
 13 14  1  0  0  0
 14 15  1  0  0  0
 14 18  2  0  0  0
 15 16  2  0  0  0
 16 20  1  0  0  0
 16 17  1  0  0  0
 20 21  2  0  0  0
 20 22  1  0  0  0
 22 23  1  0  0  0
 22 29  1  0  0  0
 23 24  1  0  0  0
 24 25  1  0  0  0
 24 26  1  0  0  0
 26 27  1  0  0  0
 26 30  1  0  0  0
 27 28  1  0  0  0
 27 29  1  0  0  0
 17 18  1  0  0  0
 17 19  1  0  0  0
 18  1  1  0  0  0
  1  2  2  0  0  0
  2  3  1  0  0  0
  2 11  1  0  0  0
  3  4  2  0  0  0
  3  5  1  0  0  0
  5  6  1  0  0  0
  5 12  1  0  0  0
  6  7  1  0  0  0
  6 11  2  0  0  0
  7  8  2  0  0  0
  8  9  1  0  0  0
  9 10  2  0  0  0
 10 31  1  0  0  0
 10 11  1  0  0  0
 31 33  1  0  0  0
 31 32  1  0  0  0
 33 34  1  0  0  0
 33 40  2  0  0  0
 34 35  2  0  0  0
 35 36  1  0  0  0
 36 37  1  0  0  0
 36 38  2  0  0  0
 38 39  1  0  0  0
 38 40  1  0  0  0
M  END
> <minimizedAffinity>
-10.34262

$$$$
