CHEMBL3690416


 36 40  0  0  0  0  0  0  0  0999 V2000
  -22.7391    1.4413  -13.9519 C   0  0  0  0  0  0  0  0  0  0  0  0
  -22.9785    2.7700  -13.6244 C   0  0  0  0  0  0  0  0  0  0  0  0
  -21.8982    3.5752  -13.8645 N   0  0  0  0  0  0  0  0  0  0  0  0
  -20.9710    2.7704  -14.3310 C   0  0  0  0  0  0  0  0  0  0  0  0
  -19.6367    3.0575  -14.7555 C   0  0  0  0  0  0  0  0  0  0  0  0
  -18.8206    2.0752  -15.2143 C   0  0  0  0  0  0  0  0  0  0  0  0
  -19.3381    0.6975  -15.2490 C   0  0  0  0  0  0  0  0  0  0  0  0
  -20.5849    0.4208  -14.8316 C   0  0  0  0  0  0  0  0  0  0  0  0
  -21.4158    1.4505  -14.3970 N   0  0  0  0  0  0  0  0  0  0  0  0
  -17.4953    2.3768  -15.7031 C   0  0  0  0  0  0  0  0  0  0  0  0
  -17.1612    3.5249  -16.2786 N   0  0  0  0  0  0  0  0  0  0  0  0
  -15.8354    3.5148  -16.6487 C   0  0  0  0  0  0  0  0  0  0  0  0
  -15.1565    2.3445  -16.4027 C   0  0  0  0  0  0  0  0  0  0  0  0
  -16.1896    1.2140  -15.6702 S   0  0  0  0  0  0  0  0  0  0  0  0
  -13.7333    2.0978  -16.7754 C   0  0  0  0  0  0  0  0  0  0  0  0
  -13.0391    3.3646  -17.0941 N   0  0  0  0  0  0  0  0  0  0  0  0
  -13.8565    4.2397  -17.9589 C   0  0  0  0  0  0  0  0  0  0  0  0
  -15.1630    4.6894  -17.2676 C   0  0  0  0  0  0  0  0  0  0  0  0
  -12.1595    3.1475  -17.5604 H   0  0  0  0  0  0  0  0  0  0  0  0
  -24.9401   -1.2598  -12.3678 C   0  0  0  0  0  0  0  0  0  0  0  0
  -25.4401   -1.8599  -13.5213 C   0  0  0  0  0  0  0  0  0  0  0  0
  -24.9971   -1.4575  -14.7796 C   0  0  0  0  0  0  0  0  0  0  0  0
  -24.0937   -0.4030  -14.9013 C   0  0  0  0  0  0  0  0  0  0  0  0
  -23.6121    0.2686  -13.7676 C   0  0  0  0  0  0  0  0  0  0  0  0
  -23.9982   -0.2176  -12.5060 C   0  0  0  0  0  0  0  0  0  0  0  0
  -27.6595   -1.3995  -11.1686 O   0  0  0  0  0  0  0  0  0  0  0  0
  -26.6273   -1.6677  -10.5690 C   0  0  0  0  0  0  0  0  0  0  0  0
  -26.6615   -2.0907   -9.2549 N   0  0  0  0  0  0  0  0  0  0  0  0
  -25.3391   -1.6290  -11.0615 N   0  0  0  0  0  0  0  0  0  0  0  0
  -25.8394   -1.9096   -8.6982 H   0  0  0  0  0  0  0  0  0  0  0  0
  -24.6087   -1.9141  -10.4290 H   0  0  0  0  0  0  0  0  0  0  0  0
  -27.9483   -2.0860   -8.5428 C   0  0  0  0  0  0  0  0  0  0  0  0
  -28.4401   -3.4564   -8.0542 C   0  0  0  0  0  0  0  0  0  0  0  0
  -28.3649   -3.5728   -6.7071 F   0  0  0  0  0  0  0  0  0  0  0  0
  -29.7108   -3.7106   -8.4287 F   0  0  0  0  0  0  0  0  0  0  0  0
  -27.6612   -4.4391   -8.5734 F   0  0  0  0  0  0  0  0  0  0  0  0
 26 27  2  0  0  0
 27 28  1  0  0  0
 27 29  1  0  0  0
 28 32  1  0  0  0
 28 30  1  0  0  0
 32 33  1  0  0  0
 33 34  1  0  0  0
 33 35  1  0  0  0
 33 36  1  0  0  0
 29 20  1  0  0  0
 29 31  1  0  0  0
 20 21  1  0  0  0
 20 25  2  0  0  0
 21 22  2  0  0  0
 22 23  1  0  0  0
 23 24  2  0  0  0
 24  1  1  0  0  0
 24 25  1  0  0  0
  1  2  2  0  0  0
  1  9  1  0  0  0
  2  3  1  0  0  0
  3  4  2  0  0  0
  4  5  1  0  0  0
  4  9  1  0  0  0
  5  6  2  0  0  0
  6 10  1  0  0  0
  6  7  1  0  0  0
 10 11  2  0  0  0
 10 14  1  0  0  0
 11 12  1  0  0  0
 12 13  2  0  0  0
 12 18  1  0  0  0
 13 14  1  0  0  0
 13 15  1  0  0  0
 15 16  1  0  0  0
 16 17  1  0  0  0
 16 19  1  0  0  0
 17 18  1  0  0  0
  7  8  2  0  0  0
  8  9  1  0  0  0
M  END
> <minimizedAffinity>
-10.62395

$$$$
