CHEMBL3809895


 31 33  0  0  0  0  0  0  0  0999 V2000
  -18.0893    1.9434  -15.3560 C   0  0  0  0  0  0  0  0  0  0  0  0
  -17.1884    0.9271  -15.0588 C   0  0  0  0  0  0  0  0  0  0  0  0
  -15.8401    1.0681  -15.3677 C   0  0  0  0  0  0  0  0  0  0  0  0
  -15.3751    2.2281  -15.9918 C   0  0  0  0  0  0  0  0  0  0  0  0
  -16.2921    3.2246  -16.3532 C   0  0  0  0  0  0  0  0  0  0  0  0
  -17.6474    3.0796  -16.0420 C   0  0  0  0  0  0  0  0  0  0  0  0
  -21.5616    2.6133  -14.3844 N   0  0  0  0  0  0  0  0  0  0  0  0
  -20.3046    2.9205  -14.8087 C   0  0  0  0  0  0  0  0  0  0  0  0
  -20.0553    4.1101  -15.0033 O   0  0  0  0  0  0  0  0  0  0  0  0
  -19.4448    1.8694  -14.9968 N   0  0  0  0  0  0  0  0  0  0  0  0
  -22.1659    3.4169  -14.2809 H   0  0  0  0  0  0  0  0  0  0  0  0
  -19.8714    0.9473  -14.9784 H   0  0  0  0  0  0  0  0  0  0  0  0
  -23.4037   -0.2141  -13.3554 C   0  0  0  0  0  0  0  0  0  0  0  0
  -23.2428    1.1512  -13.3476 C   0  0  0  0  0  0  0  0  0  0  0  0
  -22.0713    1.3721  -14.0940 C   0  0  0  0  0  0  0  0  0  0  0  0
  -21.5390    0.2137  -14.5001 N   0  0  0  0  0  0  0  0  0  0  0  0
  -22.3693   -0.7756  -14.0335 O   0  0  0  0  0  0  0  0  0  0  0  0
  -23.7765   -2.3125  -12.1262 C   0  0  0  0  0  0  0  0  0  0  0  0
  -24.4660   -1.1294  -12.8283 C   0  0  0  0  0  0  0  0  0  0  0  0
  -25.3197   -1.6435  -13.9988 C   0  0  0  0  0  0  0  0  0  0  0  0
  -25.3831   -0.4139  -11.8205 C   0  0  0  0  0  0  0  0  0  0  0  0
  -13.9065    2.3662  -16.3028 C   0  0  0  0  0  0  0  0  0  0  0  0
  -13.0379    2.5512  -15.1089 C   0  0  0  0  0  0  0  0  0  0  0  0
  -12.7746    3.6767  -14.3570 C   0  0  0  0  0  0  0  0  0  0  0  0
  -11.8290    3.2672  -13.4010 C   0  0  0  0  0  0  0  0  0  0  0  0
  -11.2818    4.0815  -12.4997 N   0  0  0  0  0  0  0  0  0  0  0  0
  -11.5368    1.9769  -13.5058 N   0  0  0  0  0  0  0  0  0  0  0  0
  -12.2957    1.5550  -14.5300 N   0  0  0  0  0  0  0  0  0  0  0  0
  -11.4382    5.0789  -12.4760 H   0  0  0  0  0  0  0  0  0  0  0  0
  -10.5423    3.7256  -11.9070 H   0  0  0  0  0  0  0  0  0  0  0  0
  -12.2475    0.5752  -14.7942 H   0  0  0  0  0  0  0  0  0  0  0  0
 18 19  1  0  0  0
 19 20  1  0  0  0
 19 21  1  0  0  0
 19 13  1  0  0  0
 13 14  2  0  0  0
 13 17  1  0  0  0
 14 15  1  0  0  0
 15  7  1  0  0  0
 15 16  2  0  0  0
  7  8  1  0  0  0
  7 11  1  0  0  0
  8  9  2  0  0  0
  8 10  1  0  0  0
 10  1  1  0  0  0
 10 12  1  0  0  0
  1  2  1  0  0  0
  1  6  2  0  0  0
  2  3  2  0  0  0
  3  4  1  0  0  0
  4 22  1  0  0  0
  4  5  2  0  0  0
 22 23  1  0  0  0
 23 24  2  0  0  0
 23 28  1  0  0  0
 24 25  1  0  0  0
 25 26  1  0  0  0
 25 27  2  0  0  0
 26 29  1  0  0  0
 26 30  1  0  0  0
 27 28  1  0  0  0
 28 31  1  0  0  0
  5  6  1  0  0  0
 16 17  1  0  0  0
M  END
> <minimizedAffinity>
-9.16188

$$$$
