CHEMBL3612323


 30 33  0  0  0  0  0  0  0  0999 V2000
  -25.9220   -0.9028  -12.1876 C   0  0  0  0  0  0  0  0  0  0  0  0
  -25.7726   -1.4475  -13.4698 C   0  0  0  0  0  0  0  0  0  0  0  0
  -24.5496   -1.3641  -14.1417 C   0  0  0  0  0  0  0  0  0  0  0  0
  -23.4635   -0.7229  -13.5433 C   0  0  0  0  0  0  0  0  0  0  0  0
  -23.6167   -0.1676  -12.2674 C   0  0  0  0  0  0  0  0  0  0  0  0
  -24.8478   -0.2354  -11.5995 C   0  0  0  0  0  0  0  0  0  0  0  0
  -28.2769   -1.9075   -9.6123 N   0  0  0  0  0  0  0  0  0  0  0  0
  -27.0564   -1.8159  -10.2602 C   0  0  0  0  0  0  0  0  0  0  0  0
  -25.9975   -2.2799   -9.8391 O   0  0  0  0  0  0  0  0  0  0  0  0
  -27.1195   -1.0933  -11.4466 N   0  0  0  0  0  0  0  0  0  0  0  0
  -29.0996   -1.6382  -10.1292 H   0  0  0  0  0  0  0  0  0  0  0  0
  -27.7565   -0.3106  -11.4204 H   0  0  0  0  0  0  0  0  0  0  0  0
  -28.7510   -3.5416   -5.7148 C   0  0  0  0  0  0  0  0  0  0  0  0
  -29.2101   -4.2367   -6.8232 C   0  0  0  0  0  0  0  0  0  0  0  0
  -29.0725   -3.6917   -8.1041 C   0  0  0  0  0  0  0  0  0  0  0  0
  -28.4704   -2.4501   -8.3146 C   0  0  0  0  0  0  0  0  0  0  0  0
  -28.0269   -1.7410   -7.1972 C   0  0  0  0  0  0  0  0  0  0  0  0
  -28.1651   -2.2872   -5.9048 C   0  0  0  0  0  0  0  0  0  0  0  0
  -28.7437   -3.0045   -3.4074 C   0  0  0  0  0  0  0  0  0  0  0  0
  -28.8265   -3.9985   -4.4267 O   0  0  0  0  0  0  0  0  0  0  0  0
  -21.8776   -0.6912  -14.3567 S   0  0  0  0  0  0  0  0  0  0  0  0
  -21.5104    1.0492  -14.3731 C   0  0  0  0  0  0  0  0  0  0  0  0
  -22.4875    1.9967  -14.0676 C   0  0  0  0  0  0  0  0  0  0  0  0
  -22.1710    3.3383  -14.1430 C   0  0  0  0  0  0  0  0  0  0  0  0
  -20.9735    3.8326  -14.4972 N   0  0  0  0  0  0  0  0  0  0  0  0
  -20.0204    2.9128  -14.8049 C   0  0  0  0  0  0  0  0  0  0  0  0
  -18.6931    3.2404  -15.2098 C   0  0  0  0  0  0  0  0  0  0  0  0
  -17.9308    2.1245  -15.4655 C   0  0  0  0  0  0  0  0  0  0  0  0
  -18.8109    0.6831  -15.2240 S   0  0  0  0  0  0  0  0  0  0  0  0
  -20.2434    1.5323  -14.7595 C   0  0  0  0  0  0  0  0  0  0  0  0
 19 20  1  0  0  0
 20 13  1  0  0  0
 13 14  1  0  0  0
 13 18  2  0  0  0
 14 15  2  0  0  0
 15 16  1  0  0  0
 16  7  1  0  0  0
 16 17  2  0  0  0
  7  8  1  0  0  0
  7 11  1  0  0  0
  8  9  2  0  0  0
  8 10  1  0  0  0
 10  1  1  0  0  0
 10 12  1  0  0  0
  1  2  1  0  0  0
  1  6  2  0  0  0
  2  3  2  0  0  0
  3  4  1  0  0  0
  4 21  1  0  0  0
  4  5  2  0  0  0
 21 22  1  0  0  0
 22 23  1  0  0  0
 22 30  2  0  0  0
 23 24  2  0  0  0
 24 25  1  0  0  0
 25 26  2  0  0  0
 26 27  1  0  0  0
 26 30  1  0  0  0
 27 28  2  0  0  0
 28 29  1  0  0  0
 29 30  1  0  0  0
  5  6  1  0  0  0
 17 18  1  0  0  0
M  END
> <minimizedAffinity>
-8.95719

$$$$
