CHEMBL4634634


 27 30  0  0  0  0  0  0  0  0999 V2000
  -14.9014   -0.3022  -13.8065 C   0  0  0  0  0  0  0  0  0  0  0  0
  -13.9633    0.5688  -14.3662 C   0  0  0  0  0  0  0  0  0  0  0  0
  -14.2661    1.6498  -15.1290 N   0  0  0  0  0  0  0  0  0  0  0  0
  -15.5904    1.8793  -15.3131 C   0  0  0  0  0  0  0  0  0  0  0  0
  -16.5629    1.0693  -14.7395 C   0  0  0  0  0  0  0  0  0  0  0  0
  -16.2157   -0.0310  -14.0081 N   0  0  0  0  0  0  0  0  0  0  0  0
  -14.4703   -5.4999  -11.8857 C   0  0  0  0  0  0  0  0  0  0  0  0
  -15.3606   -5.9180  -11.1514 O   0  0  0  0  0  0  0  0  0  0  0  0
  -14.4761   -4.2112  -12.4090 N   0  0  0  0  0  0  0  0  0  0  0  0
  -13.4142   -3.6391  -13.2456 C   0  0  0  0  0  0  0  0  0  0  0  0
  -13.2638   -2.1036  -13.1104 C   0  0  0  0  0  0  0  0  0  0  0  0
  -14.5654   -1.4245  -13.0869 N   0  0  0  0  0  0  0  0  0  0  0  0
  -15.5243   -1.9751  -12.1138 C   0  0  0  0  0  0  0  0  0  0  0  0
  -15.7570   -3.4712  -12.4051 C   0  0  0  0  0  0  0  0  0  0  0  0
  -16.4961   -3.6680  -13.7375 C   0  0  0  0  0  0  0  0  0  0  0  0
  -12.2519   -8.6872  -11.6147 C   0  0  0  0  0  0  0  0  0  0  0  0
  -13.4447   -7.9052  -12.0491 C   0  0  0  0  0  0  0  0  0  0  0  0
  -13.5026   -7.3413  -13.4413 C   0  0  0  0  0  0  0  0  0  0  0  0
  -13.3405   -6.4084  -12.2555 C   0  0  0  0  0  0  0  0  0  0  0  0
  -17.9957    1.3048  -14.8276 C   0  0  0  0  0  0  0  0  0  0  0  0
  -19.0281    0.4512  -15.2810 C   0  0  0  0  0  0  0  0  0  0  0  0
  -20.2428    0.9975  -15.1618 N   0  0  0  0  0  0  0  0  0  0  0  0
  -19.9982    2.1901  -14.5942 N   0  0  0  0  0  0  0  0  0  0  0  0
  -21.0846    3.0682  -14.2299 C   0  0  0  0  0  0  0  0  0  0  0  0
  -18.6695    2.4207  -14.3709 C   0  0  0  0  0  0  0  0  0  0  0  0
  -15.8878    2.9897  -16.1695 C   0  0  0  0  0  0  0  0  0  0  0  0
  -16.1405    3.8953  -16.8510 N   0  0  0  0  0  0  0  0  0  0  0  0
 16 17  1  0  0  0
 17 18  1  0  0  0
 17 19  1  0  0  0
 18 19  1  0  0  0
 19  7  1  0  0  0
  7  8  2  0  0  0
  7  9  1  0  0  0
  9 10  1  0  0  0
  9 14  1  0  0  0
 10 11  1  0  0  0
 11 12  1  0  0  0
 12  1  1  0  0  0
 12 13  1  0  0  0
  1  2  1  0  0  0
  1  6  2  0  0  0
  2  3  2  0  0  0
  3  4  1  0  0  0
  4 26  1  0  0  0
  4  5  2  0  0  0
 26 27  3  0  0  0
  5 20  1  0  0  0
  5  6  1  0  0  0
 20 21  1  0  0  0
 20 25  2  0  0  0
 21 22  2  0  0  0
 22 23  1  0  0  0
 23 24  1  0  0  0
 23 25  1  0  0  0
 13 14  1  0  0  0
 14 15  1  0  0  0
M  END
> <minimizedAffinity>
-7.33556

$$$$
