CHEMBL3747481


 34 38  0  0  0  0  0  0  0  0999 V2000
  -17.0362    1.1889  -13.3985 O   0  0  0  0  0  0  0  0  0  0  0  0
  -16.9935    1.4370  -14.6034 C   0  0  0  0  0  0  0  0  0  0  0  0
  -17.9921    1.8940  -15.4399 N   0  0  0  0  0  0  0  0  0  0  0  0
  -15.7946    1.3468  -15.2999 N   0  0  0  0  0  0  0  0  0  0  0  0
  -15.6999    1.0952  -16.6828 C   0  0  0  0  0  0  0  0  0  0  0  0
  -14.3814    1.3170  -17.0171 C   0  0  0  0  0  0  0  0  0  0  0  0
  -13.7346    0.8282  -15.8554 C   0  0  0  0  0  0  0  0  0  0  0  0
  -12.6238    0.0269  -15.6353 C   0  0  0  0  0  0  0  0  0  0  0  0
  -12.2568   -0.2656  -14.3191 C   0  0  0  0  0  0  0  0  0  0  0  0
  -12.9130    0.3363  -13.2417 C   0  0  0  0  0  0  0  0  0  0  0  0
  -14.0739    1.0810  -13.4455 C   0  0  0  0  0  0  0  0  0  0  0  0
  -14.5308    1.1606  -14.7654 C   0  0  0  0  0  0  0  0  0  0  0  0
  -17.6858    2.3230  -16.3064 H   0  0  0  0  0  0  0  0  0  0  0  0
  -19.2794    2.1655  -15.0067 C   0  0  0  0  0  0  0  0  0  0  0  0
  -19.8316    3.4415  -15.0417 C   0  0  0  0  0  0  0  0  0  0  0  0
  -21.1527    3.6264  -14.6515 C   0  0  0  0  0  0  0  0  0  0  0  0
  -21.9293    2.5423  -14.2436 C   0  0  0  0  0  0  0  0  0  0  0  0
  -21.3787    1.2511  -14.2052 C   0  0  0  0  0  0  0  0  0  0  0  0
  -20.0322    1.0835  -14.5560 C   0  0  0  0  0  0  0  0  0  0  0  0
  -22.1968    0.0343  -13.8698 C   0  0  0  0  0  0  0  0  0  0  0  0
  -21.6952   -1.1169  -14.3758 F   0  0  0  0  0  0  0  0  0  0  0  0
  -22.2942   -0.1589  -12.5190 F   0  0  0  0  0  0  0  0  0  0  0  0
  -23.4757    0.1299  -14.3169 F   0  0  0  0  0  0  0  0  0  0  0  0
  -11.3438   -1.2436  -13.9966 O   0  0  0  0  0  0  0  0  0  0  0  0
  -11.7634   -2.2919  -13.1960 C   0  0  0  0  0  0  0  0  0  0  0  0
  -11.4987   -2.2626  -11.8755 N   0  0  0  0  0  0  0  0  0  0  0  0
  -12.0671   -3.2091  -11.1175 C   0  0  0  0  0  0  0  0  0  0  0  0
  -12.9985   -4.0684  -11.5269 N   0  0  0  0  0  0  0  0  0  0  0  0
  -13.2484   -4.0102  -12.8450 C   0  0  0  0  0  0  0  0  0  0  0  0
  -12.5950   -3.2119  -13.7454 C   0  0  0  0  0  0  0  0  0  0  0  0
  -13.1346   -3.4392  -15.0990 C   0  0  0  0  0  0  0  0  0  0  0  0
  -14.5538   -3.7788  -14.8270 N   0  0  0  0  0  0  0  0  0  0  0  0
  -14.4848   -4.5363  -13.5326 C   0  0  0  0  0  0  0  0  0  0  0  0
  -15.0119   -2.8887  -14.6102 H   0  0  0  0  0  0  0  0  0  0  0  0
  1  2  2  0  0  0
  2  3  1  0  0  0
  2  4  1  0  0  0
  3 14  1  0  0  0
  3 13  1  0  0  0
 14 15  1  0  0  0
 14 19  2  0  0  0
 15 16  2  0  0  0
 16 17  1  0  0  0
 17 18  2  0  0  0
 18 20  1  0  0  0
 18 19  1  0  0  0
 20 21  1  0  0  0
 20 22  1  0  0  0
 20 23  1  0  0  0
  4  5  1  0  0  0
  4 12  1  0  0  0
  5  6  2  0  0  0
  6  7  1  0  0  0
  7  8  1  0  0  0
  7 12  2  0  0  0
  8  9  2  0  0  0
  9 24  1  0  0  0
  9 10  1  0  0  0
 24 25  1  0  0  0
 25 26  1  0  0  0
 25 30  2  0  0  0
 26 27  2  0  0  0
 27 28  1  0  0  0
 28 29  2  0  0  0
 29 30  1  0  0  0
 29 33  1  0  0  0
 30 31  1  0  0  0
 31 32  1  0  0  0
 32 33  1  0  0  0
 32 34  1  0  0  0
 10 11  2  0  0  0
 11 12  1  0  0  0
M  END
> <minimizedAffinity>
-8.96210

$$$$
