CHEMBL360401


 29 31  0  0  0  0  0  0  0  0999 V2000
  -28.0301   -2.0973   -8.9813 C   0  0  0  0  0  0  0  0  0  0  0  0
  -27.6151   -1.0951   -8.1049 C   0  0  0  0  0  0  0  0  0  0  0  0
  -27.5827   -1.2317   -6.7547 N   0  0  0  0  0  0  0  0  0  0  0  0
  -28.0130   -2.4312   -6.2996 C   0  0  0  0  0  0  0  0  0  0  0  0
  -28.4356   -3.4594   -7.1315 C   0  0  0  0  0  0  0  0  0  0  0  0
  -28.4176   -3.2940   -8.4782 N   0  0  0  0  0  0  0  0  0  0  0  0
  -28.9562   -4.7438   -6.6498 C   0  0  0  0  0  0  0  0  0  0  0  0
  -29.7015   -4.8273   -5.4706 C   0  0  0  0  0  0  0  0  0  0  0  0
  -30.2387   -5.9646   -4.9738 N   0  0  0  0  0  0  0  0  0  0  0  0
  -29.9798   -7.1011   -5.6601 C   0  0  0  0  0  0  0  0  0  0  0  0
  -29.2034   -7.1748   -6.8155 C   0  0  0  0  0  0  0  0  0  0  0  0
  -28.7118   -5.9620   -7.3098 C   0  0  0  0  0  0  0  0  0  0  0  0
  -28.9584   -8.4138   -7.4031 N   0  0  0  0  0  0  0  0  0  0  0  0
  -28.9189   -9.1630   -6.7126 H   0  0  0  0  0  0  0  0  0  0  0  0
  -29.5974   -8.7762   -8.6616 C   0  0  0  0  0  0  0  0  0  0  0  0
  -28.5889   -9.5032   -9.5464 C   0  0  0  0  0  0  0  0  0  0  0  0
  -27.1544   -9.0946   -9.2299 C   0  0  0  0  0  0  0  0  0  0  0  0
  -26.9261   -7.7676   -9.6909 O   0  0  0  0  0  0  0  0  0  0  0  0
  -26.9417   -7.7955  -10.6631 H   0  0  0  0  0  0  0  0  0  0  0  0
  -28.1550   -1.8166  -10.3557 N   0  0  0  0  0  0  0  0  0  0  0  0
  -28.9956   -1.3093  -10.5987 H   0  0  0  0  0  0  0  0  0  0  0  0
  -24.7782   -1.5578  -11.9303 C   0  0  0  0  0  0  0  0  0  0  0  0
  -25.1023   -1.6174  -13.2824 C   0  0  0  0  0  0  0  0  0  0  0  0
  -26.4333   -1.7613  -13.6731 C   0  0  0  0  0  0  0  0  0  0  0  0
  -27.4383   -1.8315  -12.7093 C   0  0  0  0  0  0  0  0  0  0  0  0
  -27.1444   -1.7692  -11.3406 C   0  0  0  0  0  0  0  0  0  0  0  0
  -25.7968   -1.6263  -10.9681 C   0  0  0  0  0  0  0  0  0  0  0  0
  -22.6600   -0.5016  -12.0915 C   0  0  0  0  0  0  0  0  0  0  0  0
  -23.5080   -1.4294  -11.4270 O   0  0  0  0  0  0  0  0  0  0  0  0
 28 29  1  0  0  0
 29 22  1  0  0  0
 22 23  1  0  0  0
 22 27  2  0  0  0
 23 24  2  0  0  0
 24 25  1  0  0  0
 25 26  2  0  0  0
 26 20  1  0  0  0
 26 27  1  0  0  0
 20  1  1  0  0  0
 20 21  1  0  0  0
  1  2  1  0  0  0
  1  6  2  0  0  0
  2  3  2  0  0  0
  3  4  1  0  0  0
  4  5  2  0  0  0
  5  7  1  0  0  0
  5  6  1  0  0  0
  7  8  1  0  0  0
  7 12  2  0  0  0
  8  9  2  0  0  0
  9 10  1  0  0  0
 10 11  2  0  0  0
 11 13  1  0  0  0
 11 12  1  0  0  0
 13 15  1  0  0  0
 13 14  1  0  0  0
 15 16  1  0  0  0
 16 17  1  0  0  0
 17 18  1  0  0  0
 18 19  1  0  0  0
M  END
> <minimizedAffinity>
-7.94909

$$$$
