CHEMBL1079850


 41 45  0  0  0  0  0  0  0  0999 V2000
  -25.0730   -1.0228  -11.8774 C   0  0  0  0  0  0  0  0  0  0  0  0
  -25.7762   -1.3996  -13.0259 C   0  0  0  0  0  0  0  0  0  0  0  0
  -27.0653   -1.9195  -12.9473 C   0  0  0  0  0  0  0  0  0  0  0  0
  -27.6598   -2.1044  -11.7065 C   0  0  0  0  0  0  0  0  0  0  0  0
  -26.9595   -1.8082  -10.5282 C   0  0  0  0  0  0  0  0  0  0  0  0
  -25.6697   -1.2444  -10.6304 C   0  0  0  0  0  0  0  0  0  0  0  0
  -27.5477   -2.0881   -9.1951 C   0  0  0  0  0  0  0  0  0  0  0  0
  -27.5558   -1.1162   -8.2584 C   0  0  0  0  0  0  0  0  0  0  0  0
  -28.1848   -1.3661   -7.0615 N   0  0  0  0  0  0  0  0  0  0  0  0
  -28.3484   -0.6099   -5.9346 C   0  0  0  0  0  0  0  0  0  0  0  0
  -29.0790   -1.4052   -5.0765 C   0  0  0  0  0  0  0  0  0  0  0  0
  -29.3638   -2.6261   -5.6455 N   0  0  0  0  0  0  0  0  0  0  0  0
  -28.8130   -2.5582   -6.8406 C   0  0  0  0  0  0  0  0  0  0  0  0
  -28.7809   -3.5774   -7.8763 C   0  0  0  0  0  0  0  0  0  0  0  0
  -28.1403   -3.3298   -8.9970 N   0  0  0  0  0  0  0  0  0  0  0  0
  -29.4074   -4.7895   -7.6774 N   0  0  0  0  0  0  0  0  0  0  0  0
  -30.2396   -4.7252   -7.0982 H   0  0  0  0  0  0  0  0  0  0  0  0
  -28.6675   -6.0269   -7.5705 C   0  0  0  0  0  0  0  0  0  0  0  0
  -29.5667   -7.2148   -7.7809 C   0  0  0  0  0  0  0  0  0  0  0  0
  -29.1398   -8.3116   -8.5354 C   0  0  0  0  0  0  0  0  0  0  0  0
  -30.0020   -9.3841   -8.6967 C   0  0  0  0  0  0  0  0  0  0  0  0
  -31.2456   -9.4359   -8.1746 N   0  0  0  0  0  0  0  0  0  0  0  0
  -31.6398   -8.3676   -7.4491 C   0  0  0  0  0  0  0  0  0  0  0  0
  -30.8486   -7.2519   -7.2240 C   0  0  0  0  0  0  0  0  0  0  0  0
  -23.7748    0.2655  -14.1183 O   0  0  0  0  0  0  0  0  0  0  0  0
  -23.2169    0.1709  -13.0306 C   0  0  0  0  0  0  0  0  0  0  0  0
  -23.7860   -0.4281  -11.9168 N   0  0  0  0  0  0  0  0  0  0  0  0
  -21.9536    0.6726  -12.7791 N   0  0  0  0  0  0  0  0  0  0  0  0
  -23.3142   -0.3123  -11.0329 H   0  0  0  0  0  0  0  0  0  0  0  0
  -21.5168    0.4539  -11.8924 H   0  0  0  0  0  0  0  0  0  0  0  0
  -21.1575    1.4186  -13.6883 C   0  0  0  0  0  0  0  0  0  0  0  0
  -19.8530    1.0689  -14.0593 C   0  0  0  0  0  0  0  0  0  0  0  0
  -19.1146    1.8399  -14.9749 C   0  0  0  0  0  0  0  0  0  0  0  0
  -19.7050    2.9847  -15.5292 C   0  0  0  0  0  0  0  0  0  0  0  0
  -21.0051    3.3457  -15.1719 C   0  0  0  0  0  0  0  0  0  0  0  0
  -21.7164    2.5656  -14.2592 C   0  0  0  0  0  0  0  0  0  0  0  0
  -22.9661    2.9280  -13.9340 F   0  0  0  0  0  0  0  0  0  0  0  0
  -17.7093    1.4360  -15.3591 C   0  0  0  0  0  0  0  0  0  0  0  0
  -17.2537    2.0264  -16.4982 F   0  0  0  0  0  0  0  0  0  0  0  0
  -16.8012    1.7451  -14.3919 F   0  0  0  0  0  0  0  0  0  0  0  0
  -17.5937    0.0945  -15.5637 F   0  0  0  0  0  0  0  0  0  0  0  0
 25 26  2  0  0  0
 26 27  1  0  0  0
 26 28  1  0  0  0
 27  1  1  0  0  0
 27 29  1  0  0  0
  1  2  1  0  0  0
  1  6  2  0  0  0
  2  3  2  0  0  0
  3  4  1  0  0  0
  4  5  2  0  0  0
  5  7  1  0  0  0
  5  6  1  0  0  0
  7  8  2  0  0  0
  7 15  1  0  0  0
  8  9  1  0  0  0
  9 10  1  0  0  0
  9 13  1  0  0  0
 10 11  2  0  0  0
 11 12  1  0  0  0
 12 13  2  0  0  0
 13 14  1  0  0  0
 14 16  1  0  0  0
 14 15  2  0  0  0
 16 18  1  0  0  0
 16 17  1  0  0  0
 18 19  1  0  0  0
 19 20  1  0  0  0
 19 24  2  0  0  0
 20 21  2  0  0  0
 21 22  1  0  0  0
 22 23  2  0  0  0
 23 24  1  0  0  0
 28 31  1  0  0  0
 28 30  1  0  0  0
 31 32  1  0  0  0
 31 36  2  0  0  0
 32 33  2  0  0  0
 33 38  1  0  0  0
 33 34  1  0  0  0
 38 39  1  0  0  0
 38 40  1  0  0  0
 38 41  1  0  0  0
 34 35  2  0  0  0
 35 36  1  0  0  0
 36 37  1  0  0  0
M  END
> <minimizedAffinity>
-11.13206

$$$$
