CHEMBL1992922


 25 27  0  0  0  0  0  0  0  0999 V2000
  -30.3078   -4.4367   -6.0735 C   0  0  0  0  0  0  0  0  0  0  0  0
  -30.7042   -5.7351   -6.0382 N   0  0  0  0  0  0  0  0  0  0  0  0
  -30.9980   -6.2933   -4.8498 C   0  0  0  0  0  0  0  0  0  0  0  0
  -30.9597   -5.7242   -3.6417 N   0  0  0  0  0  0  0  0  0  0  0  0
  -30.5726   -4.4413   -3.7188 C   0  0  0  0  0  0  0  0  0  0  0  0
  -30.4277   -3.6320   -2.6322 N   0  0  0  0  0  0  0  0  0  0  0  0
  -30.0095   -2.3922   -3.0287 C   0  0  0  0  0  0  0  0  0  0  0  0
  -29.8857   -2.3891   -4.4106 C   0  0  0  0  0  0  0  0  0  0  0  0
  -30.2394   -3.7183   -4.8586 C   0  0  0  0  0  0  0  0  0  0  0  0
  -30.5893   -3.9358   -1.6818 H   0  0  0  0  0  0  0  0  0  0  0  0
  -29.4417   -1.1950   -5.1341 C   0  0  0  0  0  0  0  0  0  0  0  0
  -30.3029   -0.1156   -5.3517 C   0  0  0  0  0  0  0  0  0  0  0  0
  -29.8676    1.0388   -6.0092 C   0  0  0  0  0  0  0  0  0  0  0  0
  -28.5698    1.1115   -6.5056 C   0  0  0  0  0  0  0  0  0  0  0  0
  -27.7088    0.0309   -6.3398 C   0  0  0  0  0  0  0  0  0  0  0  0
  -28.1378   -1.1086   -5.6506 C   0  0  0  0  0  0  0  0  0  0  0  0
  -29.9784   -3.8639   -7.3036 N   0  0  0  0  0  0  0  0  0  0  0  0
  -30.6198   -4.2268   -8.0016 H   0  0  0  0  0  0  0  0  0  0  0  0
  -28.5604   -3.9370   -7.7075 C   0  0  0  0  0  0  0  0  0  0  0  0
  -27.1514   -5.4583   -9.0466 O   0  0  0  0  0  0  0  0  0  0  0  0
  -28.2411   -5.3965   -8.1189 C   0  0  0  0  0  0  0  0  0  0  0  0
  -27.2615   -6.2760   -9.5631 H   0  0  0  0  0  0  0  0  0  0  0  0
  -28.2531   -2.9700   -8.8853 C   0  0  0  0  0  0  0  0  0  0  0  0
  -26.8738   -2.6108   -8.9979 O   0  0  0  0  0  0  0  0  0  0  0  0
  -26.4947   -2.6923   -8.0970 H   0  0  0  0  0  0  0  0  0  0  0  0
 20 21  1  0  0  0
 20 22  1  0  0  0
 21 19  1  0  0  0
 19 23  1  0  0  0
 19 17  1  0  0  0
 23 24  1  0  0  0
 24 25  1  0  0  0
 17  1  1  0  0  0
 17 18  1  0  0  0
  1  2  1  0  0  0
  1  9  2  0  0  0
  2  3  2  0  0  0
  3  4  1  0  0  0
  4  5  2  0  0  0
  5  6  1  0  0  0
  5  9  1  0  0  0
  6  7  1  0  0  0
  6 10  1  0  0  0
  7  8  2  0  0  0
  8 11  1  0  0  0
  8  9  1  0  0  0
 11 12  1  0  0  0
 11 16  2  0  0  0
 12 13  2  0  0  0
 13 14  1  0  0  0
 14 15  2  0  0  0
 15 16  1  0  0  0
M  END
> <minimizedAffinity>
-7.66562

$$$$
