CHEMBL3648075


 38 40  0  0  0  0  0  0  0  0999 V2000
  -34.7873    5.6733  -10.3463 C   0  0  0  0  0  0  0  0  0  0  0  0
  -35.2660    4.3431  -10.3369 C   0  0  0  0  0  0  0  0  0  0  0  0
  -34.5967    3.2976   -9.6828 C   0  0  0  0  0  0  0  0  0  0  0  0
  -33.3887    3.5664   -9.0721 C   0  0  0  0  0  0  0  0  0  0  0  0
  -32.8350    4.8586   -9.1689 C   0  0  0  0  0  0  0  0  0  0  0  0
  -33.5516    5.9117   -9.7574 C   0  0  0  0  0  0  0  0  0  0  0  0
  -32.5307    2.3312   -8.1614 S   0  0  0  0  0  0  0  0  0  0  0  0
  -33.4814    1.7337   -7.2523 O   0  0  0  0  0  0  0  0  0  0  0  0
  -31.1918    2.9763   -7.3830 N   0  0  0  0  0  0  0  0  0  0  0  0
  -30.2312    1.9981   -6.3563 S   0  0  0  0  0  0  0  0  0  0  0  0
  -28.8465    2.0732   -6.8293 O   0  0  0  0  0  0  0  0  0  0  0  0
  -30.5566    2.2172   -4.9830 O   0  0  0  0  0  0  0  0  0  0  0  0
  -30.8099    0.3450   -6.7591 C   0  0  0  0  0  0  0  0  0  0  0  0
  -30.4332   -0.6831   -5.6979 C   0  0  0  0  0  0  0  0  0  0  0  0
  -29.0339   -1.8828   -6.1823 Si  0  0  0  0  0  0  0  0  0  0  0  0
  -27.9219   -1.0876   -7.4667 C   0  0  0  0  0  0  0  0  0  0  0  0
  -28.0396   -2.3169   -4.6548 C   0  0  0  0  0  0  0  0  0  0  0  0
  -29.7851   -3.4457   -6.9013 C   0  0  0  0  0  0  0  0  0  0  0  0
  -31.8309    1.1330   -9.2790 C   0  0  0  0  0  0  0  0  0  0  0  0
  -30.6894    1.7913  -10.0237 C   0  0  0  0  0  0  0  0  0  0  0  0
  -30.2024    1.4019  -11.3791 C   0  0  0  0  0  0  0  0  0  0  0  0
  -29.4041    1.0362  -10.1727 C   0  0  0  0  0  0  0  0  0  0  0  0
  -35.5636    6.7505  -10.8140 N   0  0  0  0  0  0  0  0  0  0  0  0
  -36.5716    6.6842  -10.7967 H   0  0  0  0  0  0  0  0  0  0  0  0
  -33.6821    9.6425  -11.8112 C   0  0  0  0  0  0  0  0  0  0  0  0
  -34.2470    8.7184  -10.9957 N   0  0  0  0  0  0  0  0  0  0  0  0
  -35.1191    7.8514  -11.5402 C   0  0  0  0  0  0  0  0  0  0  0  0
  -35.5739    7.9723  -12.7959 N   0  0  0  0  0  0  0  0  0  0  0  0
  -35.0153    8.8775  -13.5893 C   0  0  0  0  0  0  0  0  0  0  0  0
  -34.0376    9.7333  -13.1632 C   0  0  0  0  0  0  0  0  0  0  0  0
  -33.1374   10.7656  -14.4569 Br  0  0  0  0  0  0  0  0  0  0  0  0
  -32.7140   10.5477  -11.2739 N   0  0  0  0  0  0  0  0  0  0  0  0
  -31.9563    9.9660  -10.9136 H   0  0  0  0  0  0  0  0  0  0  0  0
  -34.3145   12.3702  -10.7083 C   0  0  0  0  0  0  0  0  0  0  0  0
  -33.2227   11.4122  -10.1770 C   0  0  0  0  0  0  0  0  0  0  0  0
  -32.0662   12.2768   -9.6251 C   0  0  0  0  0  0  0  0  0  0  0  0
  -31.3271   11.5569   -8.6260 O   0  0  0  0  0  0  0  0  0  0  0  0
  -31.0902   10.6902   -8.9886 H   0  0  0  0  0  0  0  0  0  0  0  0
 35 32  1  0  0  0
 35 36  1  0  0  0
 35 34  1  0  0  0
 36 37  1  0  0  0
 37 38  1  0  0  0
 32 25  1  0  0  0
 32 33  1  0  0  0
 25 26  1  0  0  0
 25 30  2  0  0  0
 26 27  2  0  0  0
 27 23  1  0  0  0
 27 28  1  0  0  0
 23  1  1  0  0  0
 23 24  1  0  0  0
  1  2  1  0  0  0
  1  6  2  0  0  0
  2  3  2  0  0  0
  3  4  1  0  0  0
  4  7  1  0  0  0
  4  5  2  0  0  0
  7  8  2  0  0  0
  7 19  1  0  0  0
  7  9  2  0  0  0
 19 20  1  0  0  0
 20 21  1  0  0  0
 20 22  1  0  0  0
 21 22  1  0  0  0
  9 10  1  0  0  0
 10 11  2  0  0  0
 10 12  2  0  0  0
 10 13  1  0  0  0
 13 14  1  0  0  0
 14 15  1  0  0  0
 15 16  1  0  0  0
 15 17  1  0  0  0
 15 18  1  0  0  0
  5  6  1  0  0  0
 28 29  2  0  0  0
 29 30  1  0  0  0
 30 31  1  0  0  0
M  END
> <minimizedAffinity>
3.79906

$$$$
