CHEMBL170137


 33 37  0  0  0  0  0  0  0  0999 V2000
  -14.6539    3.7478  -16.7837 C   0  0  0  0  0  0  0  0  0  0  0  0
  -15.6499    4.6444  -16.3627 C   0  0  0  0  0  0  0  0  0  0  0  0
  -16.8685    4.1827  -15.8669 C   0  0  0  0  0  0  0  0  0  0  0  0
  -17.1456    2.8170  -15.8604 C   0  0  0  0  0  0  0  0  0  0  0  0
  -16.1938    1.9168  -16.3516 C   0  0  0  0  0  0  0  0  0  0  0  0
  -14.9486    2.3780  -16.7884 C   0  0  0  0  0  0  0  0  0  0  0  0
  -18.4253    2.3348  -15.3289 C   0  0  0  0  0  0  0  0  0  0  0  0
  -18.6817    0.9152  -15.1154 C   0  0  0  0  0  0  0  0  0  0  0  0
  -19.8851    0.5263  -14.6806 C   0  0  0  0  0  0  0  0  0  0  0  0
  -20.8653    1.4803  -14.3827 N   0  0  0  0  0  0  0  0  0  0  0  0
  -22.1632    1.3494  -13.9115 C   0  0  0  0  0  0  0  0  0  0  0  0
  -22.6369    2.6522  -13.8633 C   0  0  0  0  0  0  0  0  0  0  0  0
  -21.7007    3.5631  -14.2601 N   0  0  0  0  0  0  0  0  0  0  0  0
  -20.6459    2.8468  -14.5658 C   0  0  0  0  0  0  0  0  0  0  0  0
  -19.3747    3.2500  -15.0564 C   0  0  0  0  0  0  0  0  0  0  0  0
  -22.8534    0.1222  -13.5167 C   0  0  0  0  0  0  0  0  0  0  0  0
  -22.6147   -0.5131  -12.2907 C   0  0  0  0  0  0  0  0  0  0  0  0
  -23.3730   -1.6149  -11.8916 C   0  0  0  0  0  0  0  0  0  0  0  0
  -24.3926   -2.0761  -12.7033 C   0  0  0  0  0  0  0  0  0  0  0  0
  -24.6380   -1.4748  -13.9352 C   0  0  0  0  0  0  0  0  0  0  0  0
  -23.8607   -0.3913  -14.3440 C   0  0  0  0  0  0  0  0  0  0  0  0
  -13.3127    4.2528  -17.2802 C   0  0  0  0  0  0  0  0  0  0  0  0
  -10.6966    9.8693  -20.8446 C   0  0  0  0  0  0  0  0  0  0  0  0
  -11.0658    8.6854  -20.1224 N   0  0  0  0  0  0  0  0  0  0  0  0
  -12.3898    8.4018  -19.8891 C   0  0  0  0  0  0  0  0  0  0  0  0
  -13.2938    9.1479  -20.2456 O   0  0  0  0  0  0  0  0  0  0  0  0
  -12.6021    7.2111  -19.2278 N   0  0  0  0  0  0  0  0  0  0  0  0
  -11.5617    6.3202  -18.7107 C   0  0  0  0  0  0  0  0  0  0  0  0
  -11.8289    4.8817  -19.1787 C   0  0  0  0  0  0  0  0  0  0  0  0
  -13.1475    4.3633  -18.7462 N   0  0  0  0  0  0  0  0  0  0  0  0
  -14.1797    5.2940  -19.2945 C   0  0  0  0  0  0  0  0  0  0  0  0
  -13.9732    6.7855  -18.9267 C   0  0  0  0  0  0  0  0  0  0  0  0
  -10.5028    7.8834  -20.3325 H   0  0  0  0  0  0  0  0  0  0  0  0
 23 24  1  0  0  0
 24 25  1  0  0  0
 24 33  1  0  0  0
 25 26  2  0  0  0
 25 27  1  0  0  0
 27 28  1  0  0  0
 27 32  1  0  0  0
 28 29  1  0  0  0
 29 30  1  0  0  0
 30 22  1  0  0  0
 30 31  1  0  0  0
 22  1  1  0  0  0
  1  2  1  0  0  0
  1  6  2  0  0  0
  2  3  2  0  0  0
  3  4  1  0  0  0
  4  7  1  0  0  0
  4  5  2  0  0  0
  7  8  1  0  0  0
  7 15  2  0  0  0
  8  9  2  0  0  0
  9 10  1  0  0  0
 10 11  1  0  0  0
 10 14  1  0  0  0
 11 16  1  0  0  0
 11 12  2  0  0  0
 16 17  1  0  0  0
 16 21  2  0  0  0
 17 18  2  0  0  0
 18 19  1  0  0  0
 19 20  2  0  0  0
 20 21  1  0  0  0
 12 13  1  0  0  0
 13 14  2  0  0  0
 14 15  1  0  0  0
  5  6  1  0  0  0
 31 32  1  0  0  0
M  END
> <minimizedAffinity>
-9.97532

$$$$
