CHEMBL483158


 39 43  0  0  0  0  0  0  0  0999 V2000
  -12.0475   -1.8283  -13.0762 C   0  0  0  0  0  0  0  0  0  0  0  0
  -11.2995   -0.8837  -12.4841 N   0  0  0  0  0  0  0  0  0  0  0  0
  -11.1190    0.2539  -13.1584 C   0  0  0  0  0  0  0  0  0  0  0  0
  -11.6685    0.4614  -14.3930 C   0  0  0  0  0  0  0  0  0  0  0  0
  -12.2267   -0.6338  -15.0252 C   0  0  0  0  0  0  0  0  0  0  0  0
  -12.4196   -1.7996  -14.3766 N   0  0  0  0  0  0  0  0  0  0  0  0
  -12.7937   -0.4379  -16.3790 C   0  0  0  0  0  0  0  0  0  0  0  0
  -12.0799   -0.8709  -17.5130 C   0  0  0  0  0  0  0  0  0  0  0  0
  -12.4993   -0.5237  -18.8049 C   0  0  0  0  0  0  0  0  0  0  0  0
  -13.6761    0.1949  -18.9872 C   0  0  0  0  0  0  0  0  0  0  0  0
  -14.2048    0.6022  -20.5738 Cl  0  0  0  0  0  0  0  0  0  0  0  0
  -14.3812    0.6749  -17.8912 C   0  0  0  0  0  0  0  0  0  0  0  0
  -13.8953    0.4314  -16.5971 C   0  0  0  0  0  0  0  0  0  0  0  0
  -14.3480    1.3748  -15.5038 C   0  0  0  0  0  0  0  0  0  0  0  0
  -13.4886    1.9544  -14.7332 N   0  0  0  0  0  0  0  0  0  0  0  0
  -12.0364    1.8060  -14.8959 C   0  0  0  0  0  0  0  0  0  0  0  0
  -15.8086    1.7435  -15.3763 C   0  0  0  0  0  0  0  0  0  0  0  0
  -16.6796    0.7481  -14.8820 C   0  0  0  0  0  0  0  0  0  0  0  0
  -16.2040   -0.4172  -14.4070 F   0  0  0  0  0  0  0  0  0  0  0  0
  -18.0735    0.8937  -14.8818 C   0  0  0  0  0  0  0  0  0  0  0  0
  -18.6370    2.0705  -15.3339 C   0  0  0  0  0  0  0  0  0  0  0  0
  -17.7979    3.0953  -15.7573 C   0  0  0  0  0  0  0  0  0  0  0  0
  -16.3897    2.9636  -15.7962 C   0  0  0  0  0  0  0  0  0  0  0  0
  -15.8894    4.1168  -16.3302 O   0  0  0  0  0  0  0  0  0  0  0  0
  -15.4438    4.2485  -17.6581 C   0  0  0  0  0  0  0  0  0  0  0  0
  -12.5651   -2.7467  -12.1720 N   0  0  0  0  0  0  0  0  0  0  0  0
  -12.6425   -2.3136  -11.2611 H   0  0  0  0  0  0  0  0  0  0  0  0
  -14.8028   -5.7186  -12.0650 C   0  0  0  0  0  0  0  0  0  0  0  0
  -14.3145   -4.4139  -11.8999 C   0  0  0  0  0  0  0  0  0  0  0  0
  -13.0196   -4.0638  -12.2943 C   0  0  0  0  0  0  0  0  0  0  0  0
  -12.1719   -5.0567  -12.7700 C   0  0  0  0  0  0  0  0  0  0  0  0
  -12.6324   -6.3691  -12.9340 C   0  0  0  0  0  0  0  0  0  0  0  0
  -13.9582   -6.7046  -12.5991 C   0  0  0  0  0  0  0  0  0  0  0  0
  -14.3715   -8.1144  -12.8711 C   0  0  0  0  0  0  0  0  0  0  0  0
  -13.9208   -9.0610  -12.2435 O   0  0  0  0  0  0  0  0  0  0  0  0
  -15.2554   -8.2866  -13.8759 O   0  0  0  0  0  0  0  0  0  0  0  0
  -15.5334   -7.4377  -14.2803 H   0  0  0  0  0  0  0  0  0  0  0  0
  -17.1417   -5.4720  -12.4888 C   0  0  0  0  0  0  0  0  0  0  0  0
  -16.0879   -6.0705  -11.7295 O   0  0  0  0  0  0  0  0  0  0  0  0
 38 39  1  0  0  0
 39 28  1  0  0  0
 28 29  1  0  0  0
 28 33  2  0  0  0
 29 30  2  0  0  0
 30 26  1  0  0  0
 30 31  1  0  0  0
 26  1  1  0  0  0
 26 27  1  0  0  0
  1  2  1  0  0  0
  1  6  2  0  0  0
  2  3  2  0  0  0
  3  4  1  0  0  0
  4  5  2  0  0  0
  4 16  1  0  0  0
  5  6  1  0  0  0
  5  7  1  0  0  0
  7  8  1  0  0  0
  7 13  2  0  0  0
  8  9  2  0  0  0
  9 10  1  0  0  0
 10 11  1  0  0  0
 10 12  2  0  0  0
 12 13  1  0  0  0
 13 14  1  0  0  0
 14 17  1  0  0  0
 14 15  2  0  0  0
 17 18  1  0  0  0
 17 23  2  0  0  0
 18 19  1  0  0  0
 18 20  2  0  0  0
 20 21  1  0  0  0
 21 22  2  0  0  0
 22 23  1  0  0  0
 23 24  1  0  0  0
 24 25  1  0  0  0
 15 16  1  0  0  0
 31 32  2  0  0  0
 32 33  1  0  0  0
 33 34  1  0  0  0
 34 35  2  0  0  0
 34 36  1  0  0  0
 36 37  1  0  0  0
M  END
> <minimizedAffinity>
-8.48267

$$$$
