CHEMBL3942716


 33 36  0  0  0  0  0  0  0  0999 V2000
  -29.2280   -3.9890   -6.7523 N   0  0  0  0  0  0  0  0  0  0  0  0
  -28.3650   -3.3682   -7.7434 C   0  0  0  0  0  0  0  0  0  0  0  0
  -28.2223   -2.0228   -7.5598 C   0  0  0  0  0  0  0  0  0  0  0  0
  -27.9142   -1.2725   -8.6409 C   0  0  0  0  0  0  0  0  0  0  0  0
  -27.6504   -1.8007   -9.8583 C   0  0  0  0  0  0  0  0  0  0  0  0
  -27.9503   -0.8707  -10.7102 N   0  0  0  0  0  0  0  0  0  0  0  0
  -26.9904   -0.6253  -11.5919 C   0  0  0  0  0  0  0  0  0  0  0  0
  -25.9418   -1.4320  -11.8975 C   0  0  0  0  0  0  0  0  0  0  0  0
  -25.9260   -2.6740  -11.2301 N   0  0  0  0  0  0  0  0  0  0  0  0
  -26.9481   -2.9495  -10.0316 C   0  0  0  0  0  0  0  0  0  0  0  0
  -27.6253   -3.8876   -8.9025 C   0  0  0  0  0  0  0  0  0  0  0  0
  -24.8733   -0.5154  -12.6432 C   0  0  0  0  0  0  0  0  0  0  0  0
  -24.3000   -0.8777  -13.9455 C   0  0  0  0  0  0  0  0  0  0  0  0
  -23.2983   -0.1264  -14.3803 N   0  0  0  0  0  0  0  0  0  0  0  0
  -23.1749    0.7960  -13.4286 N   0  0  0  0  0  0  0  0  0  0  0  0
  -22.2227    1.8580  -13.7085 C   0  0  0  0  0  0  0  0  0  0  0  0
  -24.0391    0.5691  -12.3407 C   0  0  0  0  0  0  0  0  0  0  0  0
  -30.8117   -7.4103   -6.7673 C   0  0  0  0  0  0  0  0  0  0  0  0
  -29.8766   -8.1226   -6.0202 C   0  0  0  0  0  0  0  0  0  0  0  0
  -28.7367   -7.4950   -5.5371 C   0  0  0  0  0  0  0  0  0  0  0  0
  -28.5464   -6.1331   -5.7808 C   0  0  0  0  0  0  0  0  0  0  0  0
  -29.4863   -5.3559   -6.4837 C   0  0  0  0  0  0  0  0  0  0  0  0
  -30.6246   -6.0263   -6.9773 C   0  0  0  0  0  0  0  0  0  0  0  0
  -31.7641   -9.3302   -7.8286 C   0  0  0  0  0  0  0  0  0  0  0  0
  -31.9197   -7.9918   -7.3386 O   0  0  0  0  0  0  0  0  0  0  0  0
  -27.7438   -8.1110   -4.8229 O   0  0  0  0  0  0  0  0  0  0  0  0
  -28.1673   -9.0903   -3.8789 C   0  0  0  0  0  0  0  0  0  0  0  0
  -30.0555   -2.9727   -5.8903 C   0  0  0  0  0  0  0  0  0  0  0  0
  -30.3549   -3.3665   -4.4197 C   0  0  0  0  0  0  0  0  0  0  0  0
  -28.9659   -2.9967   -3.3165 S   0  0  0  0  0  0  0  0  0  0  0  0
  -28.1779   -1.5760   -4.0661 C   0  0  0  0  0  0  0  0  0  0  0  0
  -29.4915   -2.5591   -2.0377 O   0  0  0  0  0  0  0  0  0  0  0  0
  -28.0144   -4.0888   -3.3861 O   0  0  0  0  0  0  0  0  0  0  0  0
 24 25  1  0  0  0
 25 18  1  0  0  0
 18 19  1  0  0  0
 18 23  2  0  0  0
 19 20  2  0  0  0
 20 26  1  0  0  0
 20 21  1  0  0  0
 26 27  1  0  0  0
 21 22  2  0  0  0
 22  1  1  0  0  0
 22 23  1  0  0  0
  1 28  1  0  0  0
  1  2  1  0  0  0
 28 29  1  0  0  0
 29 30  1  0  0  0
 30 31  1  0  0  0
 30 32  2  0  0  0
 30 33  2  0  0  0
  2  3  1  0  0  0
  2 11  2  0  0  0
  3  4  2  0  0  0
  4  5  1  0  0  0
  5  6  1  0  0  0
  5 10  2  0  0  0
  6  7  2  0  0  0
  7  8  1  0  0  0
  8 12  1  0  0  0
  8  9  2  0  0  0
 12 13  1  0  0  0
 12 17  2  0  0  0
 13 14  2  0  0  0
 14 15  1  0  0  0
 15 16  1  0  0  0
 15 17  1  0  0  0
  9 10  1  0  0  0
 10 11  1  0  0  0
M  END
> <minimizedAffinity>
-6.81450

$$$$
