CHEMBL3752910


 39 43  0  0  0  0  0  0  0  0999 V2000
  -17.3200    3.4668  -15.9083 C   0  0  0  0  0  0  0  0  0  0  0  0
  -18.4445    2.6843  -15.2793 C   0  0  0  0  0  0  0  0  0  0  0  0
  -19.7482    2.9084  -15.7730 C   0  0  0  0  0  0  0  0  0  0  0  0
  -20.8550    2.2232  -15.2575 C   0  0  0  0  0  0  0  0  0  0  0  0
  -20.6965    1.2783  -14.2410 C   0  0  0  0  0  0  0  0  0  0  0  0
  -19.3905    1.0366  -13.7850 C   0  0  0  0  0  0  0  0  0  0  0  0
  -18.2481    1.7599  -14.2269 C   0  0  0  0  0  0  0  0  0  0  0  0
  -21.9289    0.5585  -13.7208 C   0  0  0  0  0  0  0  0  0  0  0  0
  -21.9359    0.2654  -12.5267 O   0  0  0  0  0  0  0  0  0  0  0  0
  -22.9406    0.2145  -14.6273 N   0  0  0  0  0  0  0  0  0  0  0  0
  -22.7663    0.3695  -15.6105 H   0  0  0  0  0  0  0  0  0  0  0  0
  -24.2086   -0.3859  -14.3150 C   0  0  0  0  0  0  0  0  0  0  0  0
  -25.0298   -0.9639  -15.2820 C   0  0  0  0  0  0  0  0  0  0  0  0
  -26.2103   -1.6343  -14.9311 C   0  0  0  0  0  0  0  0  0  0  0  0
  -26.5838   -1.7697  -13.5994 C   0  0  0  0  0  0  0  0  0  0  0  0
  -25.8016   -1.1995  -12.5933 C   0  0  0  0  0  0  0  0  0  0  0  0
  -24.6332   -0.4773  -12.9682 C   0  0  0  0  0  0  0  0  0  0  0  0
  -26.2165   -1.4696  -11.1618 C   0  0  0  0  0  0  0  0  0  0  0  0
  -25.3250   -0.9997  -10.2431 F   0  0  0  0  0  0  0  0  0  0  0  0
  -27.3879   -0.8487  -10.8294 F   0  0  0  0  0  0  0  0  0  0  0  0
  -26.3964   -2.7870  -10.8645 F   0  0  0  0  0  0  0  0  0  0  0  0
  -16.9431    1.5408  -13.6814 N   0  0  0  0  0  0  0  0  0  0  0  0
  -16.7364    2.0931  -12.8583 H   0  0  0  0  0  0  0  0  0  0  0  0
  -16.0390    0.4603  -13.8749 C   0  0  0  0  0  0  0  0  0  0  0  0
  -16.3144   -0.7244  -13.2907 N   0  0  0  0  0  0  0  0  0  0  0  0
  -15.4949   -1.7808  -13.4391 C   0  0  0  0  0  0  0  0  0  0  0  0
  -14.3368   -1.8089  -14.0921 N   0  0  0  0  0  0  0  0  0  0  0  0
  -14.0919   -0.6503  -14.6772 C   0  0  0  0  0  0  0  0  0  0  0  0
  -14.8564    0.5176  -14.6530 C   0  0  0  0  0  0  0  0  0  0  0  0
  -14.1202    1.3749  -15.4929 C   0  0  0  0  0  0  0  0  0  0  0  0
  -12.9940    0.8271  -15.9845 N   0  0  0  0  0  0  0  0  0  0  0  0
  -12.9975   -0.4104  -15.4558 N   0  0  0  0  0  0  0  0  0  0  0  0
  -11.9679   -1.3910  -15.7150 C   0  0  0  0  0  0  0  0  0  0  0  0
  -15.9396   -3.0361  -12.8834 C   0  0  0  0  0  0  0  0  0  0  0  0
  -16.3711   -4.0997  -13.6862 C   0  0  0  0  0  0  0  0  0  0  0  0
  -16.7385   -5.2944  -13.1013 C   0  0  0  0  0  0  0  0  0  0  0  0
  -16.7267   -5.3515  -11.7267 C   0  0  0  0  0  0  0  0  0  0  0  0
  -16.3658   -4.3459  -10.9087 N   0  0  0  0  0  0  0  0  0  0  0  0
  -15.9724   -3.2140  -11.5066 C   0  0  0  0  0  0  0  0  0  0  0  0
  1  2  1  0  0  0
  2  3  1  0  0  0
  2  7  2  0  0  0
  3  4  2  0  0  0
  4  5  1  0  0  0
  5  8  1  0  0  0
  5  6  2  0  0  0
  8  9  2  0  0  0
  8 10  1  0  0  0
 10 12  1  0  0  0
 10 11  1  0  0  0
 12 13  1  0  0  0
 12 17  2  0  0  0
 13 14  2  0  0  0
 14 15  1  0  0  0
 15 16  2  0  0  0
 16 18  1  0  0  0
 16 17  1  0  0  0
 18 19  1  0  0  0
 18 20  1  0  0  0
 18 21  1  0  0  0
  6  7  1  0  0  0
  7 22  1  0  0  0
 22 24  1  0  0  0
 22 23  1  0  0  0
 24 25  1  0  0  0
 24 29  2  0  0  0
 25 26  2  0  0  0
 26 34  1  0  0  0
 26 27  1  0  0  0
 34 35  1  0  0  0
 34 39  2  0  0  0
 35 36  2  0  0  0
 36 37  1  0  0  0
 37 38  2  0  0  0
 38 39  1  0  0  0
 27 28  2  0  0  0
 28 29  1  0  0  0
 28 32  1  0  0  0
 29 30  1  0  0  0
 30 31  2  0  0  0
 31 32  1  0  0  0
 32 33  1  0  0  0
M  END
> <minimizedAffinity>
-10.45380

$$$$
