CHEMBL276395


 40 44  0  0  0  0  0  0  0  0999 V2000
  -32.5433  -10.5124   -7.4540 C   0  0  0  0  0  0  0  0  0  0  0  0
  -31.8540   -9.1770   -7.5472 C   0  0  0  0  0  0  0  0  0  0  0  0
  -32.4662   -8.0787   -6.9149 C   0  0  0  0  0  0  0  0  0  0  0  0
  -31.8036   -6.8536   -6.7837 C   0  0  0  0  0  0  0  0  0  0  0  0
  -30.5140   -6.6982   -7.2914 C   0  0  0  0  0  0  0  0  0  0  0  0
  -29.9319   -7.7532   -8.0101 C   0  0  0  0  0  0  0  0  0  0  0  0
  -30.6122   -8.9714   -8.1751 C   0  0  0  0  0  0  0  0  0  0  0  0
  -29.7331   -5.4588   -7.0008 C   0  0  0  0  0  0  0  0  0  0  0  0
  -28.7238   -5.2174   -7.6523 O   0  0  0  0  0  0  0  0  0  0  0  0
  -30.2004   -4.7132   -5.9223 N   0  0  0  0  0  0  0  0  0  0  0  0
  -30.7160   -5.2265   -5.2162 H   0  0  0  0  0  0  0  0  0  0  0  0
  -29.4685   -3.6216   -5.3976 C   0  0  0  0  0  0  0  0  0  0  0  0
  -29.6841   -2.3499   -5.9465 C   0  0  0  0  0  0  0  0  0  0  0  0
  -29.0964   -1.2163   -5.3739 C   0  0  0  0  0  0  0  0  0  0  0  0
  -28.2614   -1.3853   -4.2633 C   0  0  0  0  0  0  0  0  0  0  0  0
  -28.0449   -2.6606   -3.7191 C   0  0  0  0  0  0  0  0  0  0  0  0
  -28.6470   -3.8122   -4.2559 C   0  0  0  0  0  0  0  0  0  0  0  0
  -28.4228   -5.0749   -3.7035 N   0  0  0  0  0  0  0  0  0  0  0  0
  -27.3091   -5.9222   -4.1472 C   0  0  0  0  0  0  0  0  0  0  0  0
  -27.8104   -7.1696   -4.8759 C   0  0  0  0  0  0  0  0  0  0  0  0
  -28.8502   -7.9180   -4.0480 C   0  0  0  0  0  0  0  0  0  0  0  0
  -29.9966   -6.9899   -3.6836 C   0  0  0  0  0  0  0  0  0  0  0  0
  -29.4995   -5.7470   -2.9609 C   0  0  0  0  0  0  0  0  0  0  0  0
  -29.3778    0.1601   -5.9212 C   0  0  0  0  0  0  0  0  0  0  0  0
  -30.7005    0.4755   -5.9703 F   0  0  0  0  0  0  0  0  0  0  0  0
  -28.7921    1.1434   -5.1784 F   0  0  0  0  0  0  0  0  0  0  0  0
  -28.9048    0.3262   -7.1885 F   0  0  0  0  0  0  0  0  0  0  0  0
  -29.8787   -9.9270   -8.8457 O   0  0  0  0  0  0  0  0  0  0  0  0
  -28.6297  -10.3048   -8.3711 C   0  0  0  0  0  0  0  0  0  0  0  0
  -28.5054  -10.5690   -7.0457 N   0  0  0  0  0  0  0  0  0  0  0  0
  -27.2719  -10.8185   -6.5697 C   0  0  0  0  0  0  0  0  0  0  0  0
  -26.1545  -10.8925   -7.3706 C   0  0  0  0  0  0  0  0  0  0  0  0
  -26.3133  -10.6871   -8.7390 C   0  0  0  0  0  0  0  0  0  0  0  0
  -27.5683  -10.3690   -9.2966 C   0  0  0  0  0  0  0  0  0  0  0  0
  -27.6926  -10.1182  -10.7490 C   0  0  0  0  0  0  0  0  0  0  0  0
  -28.7686  -10.5205  -11.5228 C   0  0  0  0  0  0  0  0  0  0  0  0
  -28.7640  -10.1450  -12.8483 C   0  0  0  0  0  0  0  0  0  0  0  0
  -27.7808   -9.4290  -13.4139 N   0  0  0  0  0  0  0  0  0  0  0  0
  -26.7763   -9.0918  -12.5980 C   0  0  0  0  0  0  0  0  0  0  0  0
  -26.6827   -9.3950  -11.2932 N   0  0  0  0  0  0  0  0  0  0  0  0
  1  2  1  0  0  0
  2  3  1  0  0  0
  2  7  2  0  0  0
  3  4  2  0  0  0
  4  5  1  0  0  0
  5  8  1  0  0  0
  5  6  2  0  0  0
  8  9  2  0  0  0
  8 10  1  0  0  0
 10 12  1  0  0  0
 10 11  1  0  0  0
 12 13  1  0  0  0
 12 17  2  0  0  0
 13 14  2  0  0  0
 14 24  1  0  0  0
 14 15  1  0  0  0
 24 25  1  0  0  0
 24 26  1  0  0  0
 24 27  1  0  0  0
 15 16  2  0  0  0
 16 17  1  0  0  0
 17 18  1  0  0  0
 18 19  1  0  0  0
 18 23  1  0  0  0
 19 20  1  0  0  0
 20 21  1  0  0  0
 21 22  1  0  0  0
 22 23  1  0  0  0
  6  7  1  0  0  0
  7 28  1  0  0  0
 28 29  1  0  0  0
 29 30  1  0  0  0
 29 34  2  0  0  0
 30 31  2  0  0  0
 31 32  1  0  0  0
 32 33  2  0  0  0
 33 34  1  0  0  0
 34 35  1  0  0  0
 35 36  1  0  0  0
 35 40  2  0  0  0
 36 37  2  0  0  0
 37 38  1  0  0  0
 38 39  2  0  0  0
 39 40  1  0  0  0
M  END
> <minimizedAffinity>
-9.13653

$$$$
