CHEMBL1762522


 35 39  0  0  0  0  0  0  0  0999 V2000
  -16.2023    0.9014  -13.9532 C   0  0  0  0  0  0  0  0  0  0  0  0
  -15.3862    1.5940  -14.8619 C   0  0  0  0  0  0  0  0  0  0  0  0
  -15.8996    2.3675  -15.9006 C   0  0  0  0  0  0  0  0  0  0  0  0
  -17.2946    2.4469  -15.9936 C   0  0  0  0  0  0  0  0  0  0  0  0
  -18.1710    1.7664  -15.1276 C   0  0  0  0  0  0  0  0  0  0  0  0
  -17.5900    0.9965  -14.1090 C   0  0  0  0  0  0  0  0  0  0  0  0
  -15.0675    3.0324  -16.7784 N   0  0  0  0  0  0  0  0  0  0  0  0
  -15.3156    4.4128  -17.2127 C   0  0  0  0  0  0  0  0  0  0  0  0
  -15.2972    4.4845  -18.7457 C   0  0  0  0  0  0  0  0  0  0  0  0
  -14.0709    3.9554  -19.2825 O   0  0  0  0  0  0  0  0  0  0  0  0
  -13.9125    2.5805  -18.8914 C   0  0  0  0  0  0  0  0  0  0  0  0
  -13.8698    2.4161  -17.3602 C   0  0  0  0  0  0  0  0  0  0  0  0
  -19.5391    1.8804  -15.2828 N   0  0  0  0  0  0  0  0  0  0  0  0
  -20.2421    3.1680  -15.3314 C   0  0  0  0  0  0  0  0  0  0  0  0
  -21.2228    3.2786  -14.1575 C   0  0  0  0  0  0  0  0  0  0  0  0
  -22.1363    2.1679  -14.1309 O   0  0  0  0  0  0  0  0  0  0  0  0
  -21.4115    0.9346  -13.9871 C   0  0  0  0  0  0  0  0  0  0  0  0
  -20.4207    0.7096  -15.1429 C   0  0  0  0  0  0  0  0  0  0  0  0
  -15.6684    0.1887  -12.8635 N   0  0  0  0  0  0  0  0  0  0  0  0
  -16.0999    0.3309  -11.9635 H   0  0  0  0  0  0  0  0  0  0  0  0
  -14.6871   -3.2329  -12.4691 C   0  0  0  0  0  0  0  0  0  0  0  0
  -13.3906   -3.1905  -12.9674 C   0  0  0  0  0  0  0  0  0  0  0  0
  -12.9002   -1.9812  -13.3691 C   0  0  0  0  0  0  0  0  0  0  0  0
  -13.6333   -0.8724  -13.3476 N   0  0  0  0  0  0  0  0  0  0  0  0
  -14.8948   -0.9691  -12.8967 C   0  0  0  0  0  0  0  0  0  0  0  0
  -15.4380   -2.1107  -12.4352 N   0  0  0  0  0  0  0  0  0  0  0  0
  -15.1919   -4.4738  -11.9597 N   0  0  0  0  0  0  0  0  0  0  0  0
  -16.5855   -4.3326  -11.5044 C   0  0  0  0  0  0  0  0  0  0  0  0
  -13.1651   -5.7759  -10.1399 C   0  0  0  0  0  0  0  0  0  0  0  0
  -13.7573   -6.4216  -11.3647 C   0  0  0  0  0  0  0  0  0  0  0  0
  -13.3432   -7.7489  -11.6316 C   0  0  0  0  0  0  0  0  0  0  0  0
  -13.8592   -8.4729  -12.6996 C   0  0  0  0  0  0  0  0  0  0  0  0
  -14.7802   -7.8710  -13.5359 C   0  0  0  0  0  0  0  0  0  0  0  0
  -15.1745   -6.5463  -13.3044 C   0  0  0  0  0  0  0  0  0  0  0  0
  -14.6944   -5.7799  -12.2164 C   0  0  0  0  0  0  0  0  0  0  0  0
 29 30  1  0  0  0
 30 31  1  0  0  0
 30 35  2  0  0  0
 31 32  2  0  0  0
 32 33  1  0  0  0
 33 34  2  0  0  0
 34 35  1  0  0  0
 35 27  1  0  0  0
 27 28  1  0  0  0
 27 21  1  0  0  0
 21 22  1  0  0  0
 21 26  2  0  0  0
 22 23  2  0  0  0
 23 24  1  0  0  0
 24 25  2  0  0  0
 25 19  1  0  0  0
 25 26  1  0  0  0
 19  1  1  0  0  0
 19 20  1  0  0  0
  1  2  1  0  0  0
  1  6  2  0  0  0
  2  3  2  0  0  0
  3  7  1  0  0  0
  3  4  1  0  0  0
  7  8  1  0  0  0
  7 12  1  0  0  0
  8  9  1  0  0  0
  9 10  1  0  0  0
 10 11  1  0  0  0
 11 12  1  0  0  0
  4  5  2  0  0  0
  5 13  1  0  0  0
  5  6  1  0  0  0
 13 14  1  0  0  0
 13 18  1  0  0  0
 14 15  1  0  0  0
 15 16  1  0  0  0
 16 17  1  0  0  0
 17 18  1  0  0  0
M  END
> <minimizedAffinity>
-8.95164

$$$$
