CHEMBL4786972


 32 34  0  0  0  0  0  0  0  0999 V2000
  -29.1954   -2.6740   -6.4231 C   0  0  0  0  0  0  0  0  0  0  0  0
  -29.0386   -1.3212   -6.1583 C   0  0  0  0  0  0  0  0  0  0  0  0
  -29.5892   -0.3935   -5.1332 C   0  0  0  0  0  0  0  0  0  0  0  0
  -28.1252   -0.8251   -7.0558 N   0  0  0  0  0  0  0  0  0  0  0  0
  -27.6139   -1.7935   -7.8809 C   0  0  0  0  0  0  0  0  0  0  0  0
  -28.2654   -2.9720   -7.5072 C   0  0  0  0  0  0  0  0  0  0  0  0
  -28.0702   -4.3386   -8.0860 C   0  0  0  0  0  0  0  0  0  0  0  0
  -27.8413    0.1467   -7.0574 H   0  0  0  0  0  0  0  0  0  0  0  0
  -26.6112   -1.4886   -8.8694 C   0  0  0  0  0  0  0  0  0  0  0  0
  -26.6924   -1.5302  -10.2176 C   0  0  0  0  0  0  0  0  0  0  0  0
  -27.8687   -1.9083  -11.1001 C   0  0  0  0  0  0  0  0  0  0  0  0
  -28.9924   -2.2486  -10.7795 O   0  0  0  0  0  0  0  0  0  0  0  0
  -27.4266   -1.7985  -12.4008 N   0  0  0  0  0  0  0  0  0  0  0  0
  -26.1047   -1.3931  -12.4568 C   0  0  0  0  0  0  0  0  0  0  0  0
  -25.3798   -1.1962  -13.6203 C   0  0  0  0  0  0  0  0  0  0  0  0
  -24.0631   -0.7883  -13.4734 C   0  0  0  0  0  0  0  0  0  0  0  0
  -23.1036   -0.5309  -14.8800 Cl  0  0  0  0  0  0  0  0  0  0  0  0
  -23.5077   -0.5853  -12.1963 C   0  0  0  0  0  0  0  0  0  0  0  0
  -24.2708   -0.7928  -11.0297 C   0  0  0  0  0  0  0  0  0  0  0  0
  -25.5888   -1.2043  -11.1660 C   0  0  0  0  0  0  0  0  0  0  0  0
  -28.0199   -1.9973  -13.1904 H   0  0  0  0  0  0  0  0  0  0  0  0
  -29.4373   -4.4092   -4.7359 N   0  0  0  0  0  0  0  0  0  0  0  0
  -30.0517   -3.6414   -5.7090 C   0  0  0  0  0  0  0  0  0  0  0  0
  -31.2522   -3.7462   -5.9504 O   0  0  0  0  0  0  0  0  0  0  0  0
  -28.5505   -4.0941   -4.3672 H   0  0  0  0  0  0  0  0  0  0  0  0
  -30.1934   -5.3621   -3.9436 C   0  0  0  0  0  0  0  0  0  0  0  0
  -29.9728   -6.8387   -4.3493 C   0  0  0  0  0  0  0  0  0  0  0  0
  -28.8922   -7.1142   -5.3278 N   0  0  0  0  0  0  0  0  0  0  0  0
  -28.1903   -8.9185   -3.7073 C   0  0  0  0  0  0  0  0  0  0  0  0
  -27.7726   -7.8449   -4.7091 C   0  0  0  0  0  0  0  0  0  0  0  0
  -29.4325   -7.7818   -6.5334 C   0  0  0  0  0  0  0  0  0  0  0  0
  -30.5375   -7.0506   -7.2989 C   0  0  0  0  0  0  0  0  0  0  0  0
 29 30  1  0  0  0
 30 28  1  0  0  0
 28 31  1  0  0  0
 28 27  1  0  0  0
 31 32  1  0  0  0
 27 26  1  0  0  0
 26 22  1  0  0  0
 22 23  1  0  0  0
 22 25  1  0  0  0
 23 24  2  0  0  0
 23  1  1  0  0  0
  1  2  2  0  0  0
  1  6  1  0  0  0
  2  3  1  0  0  0
  2  4  1  0  0  0
  4  5  1  0  0  0
  4  8  1  0  0  0
  5  9  1  0  0  0
  5  6  2  0  0  0
  9 10  2  0  0  0
 10 11  1  0  0  0
 10 20  1  0  0  0
 11 12  2  0  0  0
 11 13  1  0  0  0
 13 14  1  0  0  0
 13 21  1  0  0  0
 14 15  1  0  0  0
 14 20  2  0  0  0
 15 16  2  0  0  0
 16 17  1  0  0  0
 16 18  1  0  0  0
 18 19  2  0  0  0
 19 20  1  0  0  0
  6  7  1  0  0  0
M  END
> <minimizedAffinity>
-5.65779

$$$$
