CHEMBL3656120


 44 47  0  0  0  0  0  0  0  0999 V2000
  -14.7646   -1.4771  -13.6678 C   0  0  0  0  0  0  0  0  0  0  0  0
  -15.8735   -2.2635  -13.3765 C   0  0  0  0  0  0  0  0  0  0  0  0
  -15.8255   -3.6464  -13.5588 C   0  0  0  0  0  0  0  0  0  0  0  0
  -14.7128   -4.2760  -14.1157 C   0  0  0  0  0  0  0  0  0  0  0  0
  -13.6383   -3.4668  -14.5178 C   0  0  0  0  0  0  0  0  0  0  0  0
  -13.6644   -2.0760  -14.2901 C   0  0  0  0  0  0  0  0  0  0  0  0
  -14.6299   -5.6868  -14.2677 N   0  0  0  0  0  0  0  0  0  0  0  0
  -14.0175   -6.3446  -15.3297 C   0  0  0  0  0  0  0  0  0  0  0  0
  -13.4161   -5.8032  -16.2524 O   0  0  0  0  0  0  0  0  0  0  0  0
  -14.1871   -7.7247  -15.2839 N   0  0  0  0  0  0  0  0  0  0  0  0
  -15.0134   -6.2553  -13.5246 H   0  0  0  0  0  0  0  0  0  0  0  0
  -15.0810   -8.0177  -14.9172 H   0  0  0  0  0  0  0  0  0  0  0  0
  -13.6415   -8.5286  -16.3184 C   0  0  0  0  0  0  0  0  0  0  0  0
  -13.0701   -9.7522  -15.9925 C   0  0  0  0  0  0  0  0  0  0  0  0
  -12.5704  -10.5775  -17.0034 C   0  0  0  0  0  0  0  0  0  0  0  0
  -12.6092  -10.1784  -18.3477 C   0  0  0  0  0  0  0  0  0  0  0  0
  -11.9020  -11.2674  -19.4848 Cl  0  0  0  0  0  0  0  0  0  0  0  0
  -13.1861   -8.9564  -18.7042 C   0  0  0  0  0  0  0  0  0  0  0  0
  -13.6964   -8.1365  -17.6673 C   0  0  0  0  0  0  0  0  0  0  0  0
  -13.3210   -8.4590  -20.1221 C   0  0  0  0  0  0  0  0  0  0  0  0
  -12.1643   -8.1660  -20.7734 F   0  0  0  0  0  0  0  0  0  0  0  0
  -13.9611   -9.3593  -20.9223 F   0  0  0  0  0  0  0  0  0  0  0  0
  -14.0677   -7.3185  -20.1909 F   0  0  0  0  0  0  0  0  0  0  0  0
  -14.7084   -0.1221  -13.3956 O   0  0  0  0  0  0  0  0  0  0  0  0
  -17.4502    1.8496  -14.8900 C   0  0  0  0  0  0  0  0  0  0  0  0
  -16.7890    1.0156  -13.9988 C   0  0  0  0  0  0  0  0  0  0  0  0
  -15.4368    0.7518  -14.1860 C   0  0  0  0  0  0  0  0  0  0  0  0
  -14.7613    1.4238  -15.1962 C   0  0  0  0  0  0  0  0  0  0  0  0
  -15.4920    2.2731  -16.0188 C   0  0  0  0  0  0  0  0  0  0  0  0
  -16.8259    2.4892  -15.9055 N   0  0  0  0  0  0  0  0  0  0  0  0
  -21.1484    1.8453  -14.4332 C   0  0  0  0  0  0  0  0  0  0  0  0
  -20.8937    3.0653  -15.0397 C   0  0  0  0  0  0  0  0  0  0  0  0
  -19.5330    3.1748  -15.2399 N   0  0  0  0  0  0  0  0  0  0  0  0
  -18.8929    2.0483  -14.7915 C   0  0  0  0  0  0  0  0  0  0  0  0
  -19.8831    1.2173  -14.2870 C   0  0  0  0  0  0  0  0  0  0  0  0
  -19.0514    3.9664  -15.6540 H   0  0  0  0  0  0  0  0  0  0  0  0
  -22.3667   -0.0593  -13.6889 N   0  0  0  0  0  0  0  0  0  0  0  0
  -22.4203    1.2677  -13.9984 C   0  0  0  0  0  0  0  0  0  0  0  0
  -23.4462    1.9318  -13.9199 O   0  0  0  0  0  0  0  0  0  0  0  0
  -21.5019   -0.5770  -13.6828 H   0  0  0  0  0  0  0  0  0  0  0  0
  -24.8641   -1.2143  -14.3931 C   0  0  0  0  0  0  0  0  0  0  0  0
  -23.6900   -0.8617  -13.1958 S   0  0  0  0  0  0  0  0  0  0  0  0
  -24.4455   -0.2410  -11.7624 C   0  0  0  0  0  0  0  0  0  0  0  0
  -23.2898   -2.1775  -12.7687 O   0  0  0  0  0  0  0  0  0  0  0  0
 41 42  2  0  0  0
 42 43  1  0  0  0
 42 44  2  0  0  0
 42 37  1  0  0  0
 37 38  1  0  0  0
 37 40  1  0  0  0
 38 39  2  0  0  0
 38 31  1  0  0  0
 31 32  2  0  0  0
 31 35  1  0  0  0
 32 33  1  0  0  0
 33 34  1  0  0  0
 33 36  1  0  0  0
 34 25  1  0  0  0
 34 35  2  0  0  0
 25 26  1  0  0  0
 25 30  2  0  0  0
 26 27  2  0  0  0
 27 24  1  0  0  0
 27 28  1  0  0  0
 24  1  1  0  0  0
  1  2  1  0  0  0
  1  6  2  0  0  0
  2  3  2  0  0  0
  3  4  1  0  0  0
  4  7  1  0  0  0
  4  5  2  0  0  0
  7  8  1  0  0  0
  7 11  1  0  0  0
  8  9  2  0  0  0
  8 10  1  0  0  0
 10 13  1  0  0  0
 10 12  1  0  0  0
 13 14  1  0  0  0
 13 19  2  0  0  0
 14 15  2  0  0  0
 15 16  1  0  0  0
 16 17  1  0  0  0
 16 18  2  0  0  0
 18 20  1  0  0  0
 18 19  1  0  0  0
 20 21  1  0  0  0
 20 22  1  0  0  0
 20 23  1  0  0  0
  5  6  1  0  0  0
 28 29  2  0  0  0
 29 30  1  0  0  0
M  END
> <minimizedAffinity>
-9.08475

$$$$
