CHEMBL2000104


 25 27  0  0  0  0  0  0  0  0999 V2000
  -30.5314   -7.4325   -7.3915 C   0  0  0  0  0  0  0  0  0  0  0  0
  -31.8121   -7.7902   -6.9473 C   0  0  0  0  0  0  0  0  0  0  0  0
  -32.4495   -8.9517   -7.2054 N   0  0  0  0  0  0  0  0  0  0  0  0
  -31.8315   -9.8639   -7.9773 C   0  0  0  0  0  0  0  0  0  0  0  0
  -30.5614   -9.6016   -8.4904 C   0  0  0  0  0  0  0  0  0  0  0  0
  -29.6542  -10.6430   -9.5187 S   0  0  0  0  0  0  0  0  0  0  0  0
  -28.3394   -9.5674   -9.5957 C   0  0  0  0  0  0  0  0  0  0  0  0
  -28.5732   -8.4523   -8.8178 C   0  0  0  0  0  0  0  0  0  0  0  0
  -29.8801   -8.4110   -8.2038 C   0  0  0  0  0  0  0  0  0  0  0  0
  -28.7411   -3.6474   -6.3372 C   0  0  0  0  0  0  0  0  0  0  0  0
  -29.4909   -3.7648   -7.5057 C   0  0  0  0  0  0  0  0  0  0  0  0
  -30.0740   -4.9957   -7.8350 C   0  0  0  0  0  0  0  0  0  0  0  0
  -29.9039   -6.1397   -7.0276 C   0  0  0  0  0  0  0  0  0  0  0  0
  -29.0908   -5.9918   -5.8870 C   0  0  0  0  0  0  0  0  0  0  0  0
  -28.5355   -4.7585   -5.5236 C   0  0  0  0  0  0  0  0  0  0  0  0
  -27.9297   -2.1143   -5.9442 S   0  0  0  0  0  0  0  0  0  0  0  0
  -27.4711   -1.5363   -7.1966 O   0  0  0  0  0  0  0  0  0  0  0  0
  -26.9938   -2.4048   -4.8755 O   0  0  0  0  0  0  0  0  0  0  0  0
  -28.7223    0.3523   -5.1044 C   0  0  0  0  0  0  0  0  0  0  0  0
  -29.2205   -1.0695   -5.2945 C   0  0  0  0  0  0  0  0  0  0  0  0
  -27.1498   -9.8318  -10.3861 C   0  0  0  0  0  0  0  0  0  0  0  0
  -26.9966   -9.1121  -11.5373 N   0  0  0  0  0  0  0  0  0  0  0  0
  -26.2886  -10.6492  -10.0718 O   0  0  0  0  0  0  0  0  0  0  0  0
  -27.6662   -8.4140  -11.8269 H   0  0  0  0  0  0  0  0  0  0  0  0
  -26.1640   -9.2678  -12.0874 H   0  0  0  0  0  0  0  0  0  0  0  0
 19 20  1  0  0  0
 20 16  1  0  0  0
 16 17  2  0  0  0
 16 18  2  0  0  0
 16 10  1  0  0  0
 10 11  1  0  0  0
 10 15  2  0  0  0
 11 12  2  0  0  0
 12 13  1  0  0  0
 13  1  1  0  0  0
 13 14  2  0  0  0
  1  2  1  0  0  0
  1  9  2  0  0  0
  2  3  2  0  0  0
  3  4  1  0  0  0
  4  5  2  0  0  0
  5  6  1  0  0  0
  5  9  1  0  0  0
  6  7  1  0  0  0
  7 21  1  0  0  0
  7  8  2  0  0  0
 21 22  1  0  0  0
 21 23  2  0  0  0
 22 24  1  0  0  0
 22 25  1  0  0  0
  8  9  1  0  0  0
 14 15  1  0  0  0
M  END
> <minimizedAffinity>
-8.35501

$$$$
