CHEMBL1242119


 28 32  0  0  0  0  0  0  0  0999 V2000
  -28.8755  -11.3571   -7.1720 N   0  0  0  0  0  0  0  0  0  0  0  0
  -29.6236  -10.2007   -7.0578 C   0  0  0  0  0  0  0  0  0  0  0  0
  -30.7119  -10.1314   -7.8561 N   0  0  0  0  0  0  0  0  0  0  0  0
  -31.4622   -9.0150   -7.8400 C   0  0  0  0  0  0  0  0  0  0  0  0
  -31.2701   -7.9084   -7.1094 N   0  0  0  0  0  0  0  0  0  0  0  0
  -30.1870   -8.0216   -6.3208 C   0  0  0  0  0  0  0  0  0  0  0  0
  -29.3382   -9.1157   -6.2152 C   0  0  0  0  0  0  0  0  0  0  0  0
  -28.3851   -8.7334   -5.2194 C   0  0  0  0  0  0  0  0  0  0  0  0
  -28.6013   -7.4734   -4.7976 N   0  0  0  0  0  0  0  0  0  0  0  0
  -29.7107   -7.0791   -5.4532 N   0  0  0  0  0  0  0  0  0  0  0  0
  -29.3950  -12.0982   -7.6279 H   0  0  0  0  0  0  0  0  0  0  0  0
  -28.2737  -11.6262   -6.4123 H   0  0  0  0  0  0  0  0  0  0  0  0
  -27.2697   -9.4798   -4.6329 C   0  0  0  0  0  0  0  0  0  0  0  0
  -27.5233  -10.3494   -3.5571 C   0  0  0  0  0  0  0  0  0  0  0  0
  -26.5031  -11.1208   -2.9958 C   0  0  0  0  0  0  0  0  0  0  0  0
  -25.2152  -11.0425   -3.5164 C   0  0  0  0  0  0  0  0  0  0  0  0
  -24.2581  -11.8362   -2.9345 O   0  0  0  0  0  0  0  0  0  0  0  0
  -23.0113  -11.8503   -3.5121 C   0  0  0  0  0  0  0  0  0  0  0  0
  -22.6199  -11.1064   -4.5493 C   0  0  0  0  0  0  0  0  0  0  0  0
  -23.5870  -10.1679   -5.1432 C   0  0  0  0  0  0  0  0  0  0  0  0
  -23.2615   -9.4069   -6.0464 O   0  0  0  0  0  0  0  0  0  0  0  0
  -24.9543  -10.1993   -4.5964 C   0  0  0  0  0  0  0  0  0  0  0  0
  -25.9749   -9.4219   -5.1643 C   0  0  0  0  0  0  0  0  0  0  0  0
  -30.3301   -5.8105   -5.1304 C   0  0  0  0  0  0  0  0  0  0  0  0
  -29.3870   -4.7621   -4.5332 C   0  0  0  0  0  0  0  0  0  0  0  0
  -30.2967   -3.8038   -3.7626 C   0  0  0  0  0  0  0  0  0  0  0  0
  -31.6413   -4.5095   -3.5952 C   0  0  0  0  0  0  0  0  0  0  0  0
  -31.4248   -5.9365   -4.0723 C   0  0  0  0  0  0  0  0  0  0  0  0
  1  2  1  0  0  0
  1 11  1  0  0  0
  1 12  1  0  0  0
  2  3  1  0  0  0
  2  7  2  0  0  0
  3  4  2  0  0  0
  4  5  1  0  0  0
  5  6  2  0  0  0
  6  7  1  0  0  0
  6 10  1  0  0  0
  7  8  1  0  0  0
  8 13  1  0  0  0
  8  9  2  0  0  0
 13 14  1  0  0  0
 13 23  2  0  0  0
 14 15  2  0  0  0
 15 16  1  0  0  0
 16 17  1  0  0  0
 16 22  2  0  0  0
 17 18  1  0  0  0
 18 19  2  0  0  0
 19 20  1  0  0  0
 20 21  2  0  0  0
 20 22  1  0  0  0
 22 23  1  0  0  0
  9 10  1  0  0  0
 10 24  1  0  0  0
 24 25  1  0  0  0
 24 28  1  0  0  0
 25 26  1  0  0  0
 26 27  1  0  0  0
 27 28  1  0  0  0
M  END
> <minimizedAffinity>
-7.86133

$$$$
