CHEMBL1945173


 34 37  0  0  0  0  0  0  0  0999 V2000
  -28.7998   -7.9462   -4.1335 C   0  0  0  0  0  0  0  0  0  0  0  0
  -28.5673   -8.9817   -3.3058 N   0  0  0  0  0  0  0  0  0  0  0  0
  -28.2052  -10.1450   -3.8320 C   0  0  0  0  0  0  0  0  0  0  0  0
  -28.1486  -10.3249   -5.1840 C   0  0  0  0  0  0  0  0  0  0  0  0
  -28.7469   -9.3489   -5.9513 C   0  0  0  0  0  0  0  0  0  0  0  0
  -29.0159   -8.1193   -5.4570 N   0  0  0  0  0  0  0  0  0  0  0  0
  -28.8302   -9.5647   -7.4077 C   0  0  0  0  0  0  0  0  0  0  0  0
  -30.0245   -9.9645   -8.0319 C   0  0  0  0  0  0  0  0  0  0  0  0
  -30.0497  -10.2432   -9.4047 C   0  0  0  0  0  0  0  0  0  0  0  0
  -28.9080  -10.0290  -10.1761 C   0  0  0  0  0  0  0  0  0  0  0  0
  -28.9438  -10.3460  -11.8675 Cl  0  0  0  0  0  0  0  0  0  0  0  0
  -27.7112   -9.6474   -9.5769 C   0  0  0  0  0  0  0  0  0  0  0  0
  -27.6559   -9.5501   -8.1854 C   0  0  0  0  0  0  0  0  0  0  0  0
  -26.3802   -9.6229   -7.5857 N   0  0  0  0  0  0  0  0  0  0  0  0
  -26.0768  -10.4116   -6.4922 C   0  0  0  0  0  0  0  0  0  0  0  0
  -24.5022  -10.4423   -5.9244 S   0  0  0  0  0  0  0  0  0  0  0  0
  -27.1761  -11.2693   -5.8319 C   0  0  0  0  0  0  0  0  0  0  0  0
  -25.5820   -9.2626   -8.0984 H   0  0  0  0  0  0  0  0  0  0  0  0
  -28.6231   -6.6400   -3.6358 N   0  0  0  0  0  0  0  0  0  0  0  0
  -28.6347   -6.6553   -2.6236 H   0  0  0  0  0  0  0  0  0  0  0  0
  -30.5377   -5.1072   -4.0476 C   0  0  0  0  0  0  0  0  0  0  0  0
  -31.0244   -3.9317   -4.6510 C   0  0  0  0  0  0  0  0  0  0  0  0
  -30.1929   -3.1227   -5.4275 C   0  0  0  0  0  0  0  0  0  0  0  0
  -28.8562   -3.4616   -5.6045 C   0  0  0  0  0  0  0  0  0  0  0  0
  -28.3568   -4.5975   -4.9567 C   0  0  0  0  0  0  0  0  0  0  0  0
  -29.1749   -5.4522   -4.1970 C   0  0  0  0  0  0  0  0  0  0  0  0
  -32.4380   -5.3713   -2.6394 C   0  0  0  0  0  0  0  0  0  0  0  0
  -31.3300   -5.9662   -3.3175 O   0  0  0  0  0  0  0  0  0  0  0  0
  -27.9652   -2.6703   -6.5267 C   0  0  0  0  0  0  0  0  0  0  0  0
  -27.6774   -1.2527   -6.0184 C   0  0  0  0  0  0  0  0  0  0  0  0
  -28.3287   -0.1228   -6.8350 C   0  0  0  0  0  0  0  0  0  0  0  0
  -28.7195    1.0588   -6.0452 N   0  0  0  0  0  0  0  0  0  0  0  0
  -30.1718    1.2320   -5.9966 C   0  0  0  0  0  0  0  0  0  0  0  0
  -28.1838    0.9528   -4.6859 C   0  0  0  0  0  0  0  0  0  0  0  0
 27 28  1  0  0  0
 28 21  1  0  0  0
 21 22  1  0  0  0
 21 26  2  0  0  0
 22 23  2  0  0  0
 23 24  1  0  0  0
 24 29  1  0  0  0
 24 25  2  0  0  0
 29 30  1  0  0  0
 30 31  1  0  0  0
 31 32  1  0  0  0
 32 33  1  0  0  0
 32 34  1  0  0  0
 25 26  1  0  0  0
 26 19  1  0  0  0
 19  1  1  0  0  0
 19 20  1  0  0  0
  1  2  1  0  0  0
  1  6  2  0  0  0
  2  3  2  0  0  0
  3  4  1  0  0  0
  4  5  2  0  0  0
  4 17  1  0  0  0
  5  6  1  0  0  0
  5  7  1  0  0  0
  7  8  1  0  0  0
  7 13  2  0  0  0
  8  9  2  0  0  0
  9 10  1  0  0  0
 10 11  1  0  0  0
 10 12  2  0  0  0
 12 13  1  0  0  0
 13 14  1  0  0  0
 14 15  1  0  0  0
 14 18  1  0  0  0
 15 16  2  0  0  0
 15 17  1  0  0  0
M  END
> <minimizedAffinity>
-8.60948

$$$$
