CHEMBL369760


 34 37  0  0  0  0  0  0  0  0999 V2000
  -12.3121   -2.1163  -12.9894 C   0  0  0  0  0  0  0  0  0  0  0  0
  -13.6131   -2.5991  -12.8916 C   0  0  0  0  0  0  0  0  0  0  0  0
  -14.6541   -1.9164  -13.5321 C   0  0  0  0  0  0  0  0  0  0  0  0
  -14.4337   -0.7029  -14.1930 C   0  0  0  0  0  0  0  0  0  0  0  0
  -13.1520   -0.1427  -14.1306 C   0  0  0  0  0  0  0  0  0  0  0  0
  -12.0965   -0.8484  -13.5335 C   0  0  0  0  0  0  0  0  0  0  0  0
  -15.4205   -0.0464  -14.9699 N   0  0  0  0  0  0  0  0  0  0  0  0
  -16.5474    0.6028  -14.4817 C   0  0  0  0  0  0  0  0  0  0  0  0
  -16.7679    0.8263  -13.2983 O   0  0  0  0  0  0  0  0  0  0  0  0
  -17.4448    0.9203  -15.4956 N   0  0  0  0  0  0  0  0  0  0  0  0
  -15.2829   -0.0256  -15.9706 H   0  0  0  0  0  0  0  0  0  0  0  0
  -17.4655    0.2699  -16.2666 H   0  0  0  0  0  0  0  0  0  0  0  0
  -18.6660    1.5781  -15.2020 C   0  0  0  0  0  0  0  0  0  0  0  0
  -18.7303    2.9671  -15.3166 C   0  0  0  0  0  0  0  0  0  0  0  0
  -19.9445    3.6293  -15.1140 C   0  0  0  0  0  0  0  0  0  0  0  0
  -21.0862    2.9140  -14.7476 C   0  0  0  0  0  0  0  0  0  0  0  0
  -21.0279    1.5270  -14.5876 C   0  0  0  0  0  0  0  0  0  0  0  0
  -22.2400    0.7418  -14.1795 C   0  0  0  0  0  0  0  0  0  0  0  0
  -19.8132    0.8669  -14.8216 C   0  0  0  0  0  0  0  0  0  0  0  0
  -11.1890   -2.8270  -12.6298 O   0  0  0  0  0  0  0  0  0  0  0  0
  -12.4134   -7.8970  -12.2231 C   0  0  0  0  0  0  0  0  0  0  0  0
  -12.0284   -7.3803  -10.9794 C   0  0  0  0  0  0  0  0  0  0  0  0
  -11.6172   -6.0611  -10.8057 C   0  0  0  0  0  0  0  0  0  0  0  0
  -11.3840   -5.6348   -9.5517 N   0  0  0  0  0  0  0  0  0  0  0  0
  -11.0809   -4.3346   -9.3692 C   0  0  0  0  0  0  0  0  0  0  0  0
  -11.0181   -3.4102  -10.3904 C   0  0  0  0  0  0  0  0  0  0  0  0
  -11.2538   -3.8466  -11.6918 C   0  0  0  0  0  0  0  0  0  0  0  0
  -11.5049   -5.2282  -11.9313 C   0  0  0  0  0  0  0  0  0  0  0  0
  -11.6678   -5.8355  -13.1972 C   0  0  0  0  0  0  0  0  0  0  0  0
  -12.1969   -7.1185  -13.3590 C   0  0  0  0  0  0  0  0  0  0  0  0
  -12.0374  -10.2366  -12.3816 C   0  0  0  0  0  0  0  0  0  0  0  0
  -12.9614   -9.1461  -12.3522 O   0  0  0  0  0  0  0  0  0  0  0  0
  -12.4623   -7.3809  -14.6738 O   0  0  0  0  0  0  0  0  0  0  0  0
  -13.7775   -7.2507  -15.1823 C   0  0  0  0  0  0  0  0  0  0  0  0
 31 32  1  0  0  0
 32 21  1  0  0  0
 21 22  1  0  0  0
 21 30  2  0  0  0
 22 23  2  0  0  0
 23 24  1  0  0  0
 23 28  1  0  0  0
 24 25  2  0  0  0
 25 26  1  0  0  0
 26 27  2  0  0  0
 27 20  1  0  0  0
 27 28  1  0  0  0
 20  1  1  0  0  0
  1  2  1  0  0  0
  1  6  2  0  0  0
  2  3  2  0  0  0
  3  4  1  0  0  0
  4  7  1  0  0  0
  4  5  2  0  0  0
  7  8  1  0  0  0
  7 11  1  0  0  0
  8  9  2  0  0  0
  8 10  1  0  0  0
 10 13  1  0  0  0
 10 12  1  0  0  0
 13 14  1  0  0  0
 13 19  2  0  0  0
 14 15  2  0  0  0
 15 16  1  0  0  0
 16 17  2  0  0  0
 17 18  1  0  0  0
 17 19  1  0  0  0
  5  6  1  0  0  0
 28 29  2  0  0  0
 29 30  1  0  0  0
 30 33  1  0  0  0
 33 34  1  0  0  0
M  END
> <minimizedAffinity>
-8.09332

$$$$
