CHEMBL238522


 28 30  0  0  0  0  0  0  0  0999 V2000
  -28.9933   -7.7952   -6.2101 C   0  0  0  0  0  0  0  0  0  0  0  0
  -28.1801   -8.7053   -5.5456 C   0  0  0  0  0  0  0  0  0  0  0  0
  -28.7116   -9.9591   -5.5219 N   0  0  0  0  0  0  0  0  0  0  0  0
  -29.8283   -9.8615   -6.1985 C   0  0  0  0  0  0  0  0  0  0  0  0
  -30.0554   -8.5802   -6.6231 N   0  0  0  0  0  0  0  0  0  0  0  0
  -31.2713   -8.1898   -7.2985 C   0  0  0  0  0  0  0  0  0  0  0  0
  -29.1408   -5.6163   -5.2024 N   0  0  0  0  0  0  0  0  0  0  0  0
  -28.7902   -6.3539   -6.3275 C   0  0  0  0  0  0  0  0  0  0  0  0
  -28.3609   -5.8391   -7.3551 O   0  0  0  0  0  0  0  0  0  0  0  0
  -29.9411   -5.9997   -4.7203 H   0  0  0  0  0  0  0  0  0  0  0  0
  -29.2017   -1.4107   -4.9625 C   0  0  0  0  0  0  0  0  0  0  0  0
  -30.1325   -2.0805   -5.7731 C   0  0  0  0  0  0  0  0  0  0  0  0
  -30.1058   -3.4784   -5.8933 C   0  0  0  0  0  0  0  0  0  0  0  0
  -29.1208   -4.2077   -5.2249 C   0  0  0  0  0  0  0  0  0  0  0  0
  -28.1819   -3.5567   -4.4347 C   0  0  0  0  0  0  0  0  0  0  0  0
  -28.2214   -2.1655   -4.2984 C   0  0  0  0  0  0  0  0  0  0  0  0
  -27.8946    0.7470   -5.0738 C   0  0  0  0  0  0  0  0  0  0  0  0
  -29.2603    0.1013   -4.8200 C   0  0  0  0  0  0  0  0  0  0  0  0
  -30.3276    0.7058   -5.7358 C   0  0  0  0  0  0  0  0  0  0  0  0
  -26.9798   -8.4581   -4.9950 N   0  0  0  0  0  0  0  0  0  0  0  0
  -26.5478   -7.5462   -5.1324 H   0  0  0  0  0  0  0  0  0  0  0  0
  -26.5260   -9.1882   -3.8248 C   0  0  0  0  0  0  0  0  0  0  0  0
  -25.1460   -9.7850   -4.0460 C   0  0  0  0  0  0  0  0  0  0  0  0
  -24.4541  -10.4441   -3.0225 C   0  0  0  0  0  0  0  0  0  0  0  0
  -23.2080  -10.9822   -3.2913 C   0  0  0  0  0  0  0  0  0  0  0  0
  -22.6180  -10.9440   -4.5070 N   0  0  0  0  0  0  0  0  0  0  0  0
  -23.3128  -10.3309   -5.4920 C   0  0  0  0  0  0  0  0  0  0  0  0
  -24.5612   -9.7511   -5.3135 C   0  0  0  0  0  0  0  0  0  0  0  0
 17 18  1  0  0  0
 18 19  1  0  0  0
 18 11  1  0  0  0
 11 12  1  0  0  0
 11 16  2  0  0  0
 12 13  2  0  0  0
 13 14  1  0  0  0
 14  7  1  0  0  0
 14 15  2  0  0  0
  7  8  1  0  0  0
  7 10  1  0  0  0
  8  9  2  0  0  0
  8  1  1  0  0  0
  1  2  2  0  0  0
  1  5  1  0  0  0
  2 20  1  0  0  0
  2  3  1  0  0  0
 20 22  1  0  0  0
 20 21  1  0  0  0
 22 23  1  0  0  0
 23 24  1  0  0  0
 23 28  2  0  0  0
 24 25  2  0  0  0
 25 26  1  0  0  0
 26 27  2  0  0  0
 27 28  1  0  0  0
  3  4  2  0  0  0
  4  5  1  0  0  0
  5  6  1  0  0  0
 15 16  1  0  0  0
M  END
> <minimizedAffinity>
-7.91991

$$$$
