CHEMBL4584949


 42 47  0  0  0  0  0  0  0  0999 V2000
  -29.6154   -7.3561   -4.5877 N   0  0  0  0  0  0  0  0  0  0  0  0
  -30.4462   -7.6450   -4.0604 H   0  0  0  0  0  0  0  0  0  0  0  0
  -26.6374  -10.8860   -8.6867 C   0  0  0  0  0  0  0  0  0  0  0  0
  -26.9741  -10.4215   -7.3401 N   0  0  0  0  0  0  0  0  0  0  0  0
  -26.2582  -10.8182   -6.2273 C   0  0  0  0  0  0  0  0  0  0  0  0
  -26.4687  -10.4168   -4.9659 C   0  0  0  0  0  0  0  0  0  0  0  0
  -27.5498   -9.4171   -4.7378 C   0  0  0  0  0  0  0  0  0  0  0  0
  -27.7844   -8.9805   -3.6126 O   0  0  0  0  0  0  0  0  0  0  0  0
  -28.3680   -9.0036   -5.9119 C   0  0  0  0  0  0  0  0  0  0  0  0
  -29.4459   -8.1173   -5.7623 C   0  0  0  0  0  0  0  0  0  0  0  0
  -30.2601   -7.8341   -6.8086 N   0  0  0  0  0  0  0  0  0  0  0  0
  -30.0113   -8.3963   -7.9994 C   0  0  0  0  0  0  0  0  0  0  0  0
  -28.9347   -9.2242   -8.2371 C   0  0  0  0  0  0  0  0  0  0  0  0
  -28.0831   -9.5578   -7.1791 C   0  0  0  0  0  0  0  0  0  0  0  0
  -25.6845  -10.9956   -3.8688 C   0  0  0  0  0  0  0  0  0  0  0  0
  -26.2822  -11.8493   -2.9316 C   0  0  0  0  0  0  0  0  0  0  0  0
  -25.5350  -12.3487   -1.8614 C   0  0  0  0  0  0  0  0  0  0  0  0
  -24.1969  -11.9934   -1.7308 C   0  0  0  0  0  0  0  0  0  0  0  0
  -23.4858  -12.4660   -0.6988 F   0  0  0  0  0  0  0  0  0  0  0  0
  -23.5871  -11.1511   -2.6526 C   0  0  0  0  0  0  0  0  0  0  0  0
  -24.3311  -10.6505   -3.7230 C   0  0  0  0  0  0  0  0  0  0  0  0
  -29.2887   -6.0020   -4.3819 C   0  0  0  0  0  0  0  0  0  0  0  0
  -27.9490   -5.6102   -4.4829 C   0  0  0  0  0  0  0  0  0  0  0  0
  -27.5708   -4.2813   -4.2605 C   0  0  0  0  0  0  0  0  0  0  0  0
  -28.5378   -3.3104   -3.9740 C   0  0  0  0  0  0  0  0  0  0  0  0
  -29.8692   -3.7042   -3.8674 C   0  0  0  0  0  0  0  0  0  0  0  0
  -30.8185   -2.8049   -3.5665 F   0  0  0  0  0  0  0  0  0  0  0  0
  -30.2435   -5.0302   -4.0659 C   0  0  0  0  0  0  0  0  0  0  0  0
  -28.2617   -1.9786   -3.7316 O   0  0  0  0  0  0  0  0  0  0  0  0
  -28.3808   -1.0723   -4.7629 C   0  0  0  0  0  0  0  0  0  0  0  0
  -29.0210    0.1523   -4.6117 C   0  0  0  0  0  0  0  0  0  0  0  0
  -29.1715    0.9312   -5.7322 C   0  0  0  0  0  0  0  0  0  0  0  0
  -28.6802    0.5928   -6.9364 N   0  0  0  0  0  0  0  0  0  0  0  0
  -27.9912   -0.5546   -7.0688 C   0  0  0  0  0  0  0  0  0  0  0  0
  -27.8028   -1.4128   -5.9911 C   0  0  0  0  0  0  0  0  0  0  0  0
  -27.4643   -0.8951   -8.3296 N   0  0  0  0  0  0  0  0  0  0  0  0
  -27.8364   -2.0373   -9.0204 C   0  0  0  0  0  0  0  0  0  0  0  0
  -28.6140   -2.9026   -8.6554 O   0  0  0  0  0  0  0  0  0  0  0  0
  -26.7504   -0.3008   -8.7164 H   0  0  0  0  0  0  0  0  0  0  0  0
  -27.2003   -2.2621  -10.3529 C   0  0  0  0  0  0  0  0  0  0  0  0
  -25.9141   -1.5491  -10.6982 C   0  0  0  0  0  0  0  0  0  0  0  0
  -27.1499   -1.3181  -11.5210 C   0  0  0  0  0  0  0  0  0  0  0  0
  3  4  1  0  0  0
  4  5  1  0  0  0
  4 14  1  0  0  0
  5  6  2  0  0  0
  6 15  1  0  0  0
  6  7  1  0  0  0
 15 16  1  0  0  0
 15 21  2  0  0  0
 16 17  2  0  0  0
 17 18  1  0  0  0
 18 19  1  0  0  0
 18 20  2  0  0  0
 20 21  1  0  0  0
  7  8  2  0  0  0
  7  9  1  0  0  0
  9 10  1  0  0  0
  9 14  2  0  0  0
 10  1  1  0  0  0
 10 11  2  0  0  0
  1 22  1  0  0  0
  1  2  1  0  0  0
 22 23  1  0  0  0
 22 28  2  0  0  0
 23 24  2  0  0  0
 24 25  1  0  0  0
 25 29  1  0  0  0
 25 26  2  0  0  0
 29 30  1  0  0  0
 30 31  1  0  0  0
 30 35  2  0  0  0
 31 32  2  0  0  0
 32 33  1  0  0  0
 33 34  2  0  0  0
 34 36  1  0  0  0
 34 35  1  0  0  0
 36 37  1  0  0  0
 36 39  1  0  0  0
 37 38  2  0  0  0
 37 40  1  0  0  0
 40 41  1  0  0  0
 40 42  1  0  0  0
 41 42  1  0  0  0
 26 27  1  0  0  0
 26 28  1  0  0  0
 11 12  1  0  0  0
 12 13  2  0  0  0
 13 14  1  0  0  0
M  END
> <minimizedAffinity>
-10.12949

$$$$
