CHEMBL1973793


 28 31  0  0  0  0  0  0  0  0999 V2000
  -29.5797   -5.6815   -7.2284 C   0  0  0  0  0  0  0  0  0  0  0  0
  -30.2755   -5.3409   -6.0590 C   0  0  0  0  0  0  0  0  0  0  0  0
  -30.1805   -4.0543   -5.5299 C   0  0  0  0  0  0  0  0  0  0  0  0
  -29.3971   -3.1218   -6.1894 C   0  0  0  0  0  0  0  0  0  0  0  0
  -28.6949   -3.4733   -7.3615 C   0  0  0  0  0  0  0  0  0  0  0  0
  -28.7690   -4.7508   -7.8900 C   0  0  0  0  0  0  0  0  0  0  0  0
  -27.9650   -2.2500   -7.8089 C   0  0  0  0  0  0  0  0  0  0  0  0
  -27.1791   -2.0216   -8.8136 N   0  0  0  0  0  0  0  0  0  0  0  0
  -26.9940   -3.1442   -9.6178 O   0  0  0  0  0  0  0  0  0  0  0  0
  -28.2978   -1.1836   -6.8318 C   0  0  0  0  0  0  0  0  0  0  0  0
  -27.8886    0.1377   -6.7929 C   0  0  0  0  0  0  0  0  0  0  0  0
  -28.3710    0.9293   -5.7489 C   0  0  0  0  0  0  0  0  0  0  0  0
  -29.2326    0.3917   -4.7778 C   0  0  0  0  0  0  0  0  0  0  0  0
  -29.6336   -0.9496   -4.8350 C   0  0  0  0  0  0  0  0  0  0  0  0
  -29.1544   -1.7347   -5.8724 C   0  0  0  0  0  0  0  0  0  0  0  0
  -26.3568   -2.8195  -10.2867 H   0  0  0  0  0  0  0  0  0  0  0  0
  -29.6870   -7.0034   -7.7339 N   0  0  0  0  0  0  0  0  0  0  0  0
  -30.5394   -7.2492   -8.2338 H   0  0  0  0  0  0  0  0  0  0  0  0
  -28.0242   -7.7345   -5.9948 O   0  0  0  0  0  0  0  0  0  0  0  0
  -29.0865   -8.2823   -6.8112 S   0  0  0  0  0  0  0  0  0  0  0  0
  -30.1922   -9.0079   -6.2266 O   0  0  0  0  0  0  0  0  0  0  0  0
  -28.2935   -9.3485   -8.0009 C   0  0  0  0  0  0  0  0  0  0  0  0
  -27.0802   -9.9675   -7.6838 C   0  0  0  0  0  0  0  0  0  0  0  0
  -26.3802  -10.6599   -8.6736 C   0  0  0  0  0  0  0  0  0  0  0  0
  -26.8921  -10.7372   -9.9707 C   0  0  0  0  0  0  0  0  0  0  0  0
  -28.1134  -10.1329  -10.2718 C   0  0  0  0  0  0  0  0  0  0  0  0
  -28.7908  -10.2277  -12.0347 Br  0  0  0  0  0  0  0  0  0  0  0  0
  -28.8216   -9.4342   -9.2951 C   0  0  0  0  0  0  0  0  0  0  0  0
 19 20  2  0  0  0
 20 21  2  0  0  0
 20 17  1  0  0  0
 20 22  1  0  0  0
 17  1  1  0  0  0
 17 18  1  0  0  0
  1  2  1  0  0  0
  1  6  2  0  0  0
  2  3  2  0  0  0
  3  4  1  0  0  0
  4  5  2  0  0  0
  4 15  1  0  0  0
  5  6  1  0  0  0
  5  7  1  0  0  0
  7  8  2  0  0  0
  7 10  1  0  0  0
  8  9  1  0  0  0
  9 16  1  0  0  0
 10 11  1  0  0  0
 10 15  2  0  0  0
 11 12  2  0  0  0
 12 13  1  0  0  0
 13 14  2  0  0  0
 14 15  1  0  0  0
 22 23  1  0  0  0
 22 28  2  0  0  0
 23 24  2  0  0  0
 24 25  1  0  0  0
 25 26  2  0  0  0
 26 27  1  0  0  0
 26 28  1  0  0  0
M  END
> <minimizedAffinity>
-9.87979

$$$$
