CHEMBL3923692


 37 40  0  0  0  0  0  0  0  0999 V2000
  -28.9924   -5.4267   -7.0641 C   0  0  0  0  0  0  0  0  0  0  0  0
  -28.7721   -4.4600   -8.0578 C   0  0  0  0  0  0  0  0  0  0  0  0
  -28.3880   -3.1342   -7.7263 C   0  0  0  0  0  0  0  0  0  0  0  0
  -28.1071   -2.0906   -8.6206 C   0  0  0  0  0  0  0  0  0  0  0  0
  -27.6563   -0.8848   -8.2107 N   0  0  0  0  0  0  0  0  0  0  0  0
  -27.5215   -0.6971   -6.8993 C   0  0  0  0  0  0  0  0  0  0  0  0
  -27.8074   -1.5954   -5.9637 N   0  0  0  0  0  0  0  0  0  0  0  0
  -28.2226   -2.7873   -6.3943 C   0  0  0  0  0  0  0  0  0  0  0  0
  -28.4731   -3.7372   -5.4364 C   0  0  0  0  0  0  0  0  0  0  0  0
  -28.8392   -5.0666   -5.7251 C   0  0  0  0  0  0  0  0  0  0  0  0
  -28.2724   -7.3155   -8.3539 C   0  0  0  0  0  0  0  0  0  0  0  0
  -29.2683   -6.6647   -7.5778 O   0  0  0  0  0  0  0  0  0  0  0  0
  -28.3016   -2.2935  -10.0118 N   0  0  0  0  0  0  0  0  0  0  0  0
  -29.2405   -1.9956  -10.2581 H   0  0  0  0  0  0  0  0  0  0  0  0
  -27.3315   -1.9416  -10.9737 C   0  0  0  0  0  0  0  0  0  0  0  0
  -27.7253   -1.6515  -12.2885 C   0  0  0  0  0  0  0  0  0  0  0  0
  -26.7815   -1.3957  -13.2794 C   0  0  0  0  0  0  0  0  0  0  0  0
  -25.4233   -1.4194  -12.9650 C   0  0  0  0  0  0  0  0  0  0  0  0
  -24.2996   -1.1427  -14.2460 Cl  0  0  0  0  0  0  0  0  0  0  0  0
  -25.0187   -1.6765  -11.6487 C   0  0  0  0  0  0  0  0  0  0  0  0
  -23.3527   -1.7206  -11.1872 Cl  0  0  0  0  0  0  0  0  0  0  0  0
  -25.9725   -1.9309  -10.6549 C   0  0  0  0  0  0  0  0  0  0  0  0
  -28.9778   -6.0039   -4.7165 O   0  0  0  0  0  0  0  0  0  0  0  0
  -27.7281   -6.5948   -4.3366 C   0  0  0  0  0  0  0  0  0  0  0  0
  -27.5622   -8.0581   -4.6872 C   0  0  0  0  0  0  0  0  0  0  0  0
  -28.6137   -8.9109   -3.9759 C   0  0  0  0  0  0  0  0  0  0  0  0
  -28.3630  -10.3564   -4.2711 N   0  0  0  0  0  0  0  0  0  0  0  0
  -26.9687  -10.7206   -3.8429 C   0  0  0  0  0  0  0  0  0  0  0  0
  -25.9254   -9.7819   -4.4694 C   0  0  0  0  0  0  0  0  0  0  0  0
  -26.2380   -8.4099   -4.2128 O   0  0  0  0  0  0  0  0  0  0  0  0
  -28.8220  -10.8424   -5.8369 S   0  0  0  0  0  0  0  0  0  0  0  0
  -27.7342  -10.5304   -6.7404 O   0  0  0  0  0  0  0  0  0  0  0  0
  -29.3775  -12.1739   -5.7649 O   0  0  0  0  0  0  0  0  0  0  0  0
  -30.1417   -9.6932   -6.1777 C   0  0  0  0  0  0  0  0  0  0  0  0
  -30.8983  -10.1528   -7.4193 C   0  0  0  0  0  0  0  0  0  0  0  0
  -32.4034   -9.9945   -7.3058 C   0  0  0  0  0  0  0  0  0  0  0  0
  -32.8817   -8.2860   -7.2004 Cl  0  0  0  0  0  0  0  0  0  0  0  0
 11 12  1  0  0  0
 12  1  1  0  0  0
  1  2  1  0  0  0
  1 10  2  0  0  0
  2  3  2  0  0  0
  3  4  1  0  0  0
  3  8  1  0  0  0
  4 13  1  0  0  0
  4  5  2  0  0  0
 13 15  1  0  0  0
 13 14  1  0  0  0
 15 16  1  0  0  0
 15 22  2  0  0  0
 16 17  2  0  0  0
 17 18  1  0  0  0
 18 19  1  0  0  0
 18 20  2  0  0  0
 20 21  1  0  0  0
 20 22  1  0  0  0
  5  6  1  0  0  0
  6  7  2  0  0  0
  7  8  1  0  0  0
  8  9  2  0  0  0
  9 10  1  0  0  0
 10 23  1  0  0  0
 23 24  1  0  0  0
 24 25  1  0  0  0
 25 26  1  0  0  0
 25 30  1  0  0  0
 26 27  1  0  0  0
 27 31  1  0  0  0
 27 28  1  0  0  0
 31 32  2  0  0  0
 31 33  2  0  0  0
 31 34  1  0  0  0
 34 35  1  0  0  0
 35 36  1  0  0  0
 36 37  1  0  0  0
 28 29  1  0  0  0
 29 30  1  0  0  0
M  END
> <minimizedAffinity>
-7.93461

$$$$
