CHEMBL1095957


 26 28  0  0  0  0  0  0  0  0999 V2000
  -17.1637    1.9117  -15.5383 C   0  0  0  0  0  0  0  0  0  0  0  0
  -16.8035    3.2408  -15.7272 C   0  0  0  0  0  0  0  0  0  0  0  0
  -17.8747    4.0399  -15.5445 N   0  0  0  0  0  0  0  0  0  0  0  0
  -18.9034    3.2302  -15.2445 C   0  0  0  0  0  0  0  0  0  0  0  0
  -20.2045    3.6110  -14.9559 C   0  0  0  0  0  0  0  0  0  0  0  0
  -21.1342    2.6102  -14.6554 C   0  0  0  0  0  0  0  0  0  0  0  0
  -20.7563    1.2320  -14.6457 C   0  0  0  0  0  0  0  0  0  0  0  0
  -19.4186    0.8837  -14.9419 C   0  0  0  0  0  0  0  0  0  0  0  0
  -18.5159    1.9150  -15.2364 C   0  0  0  0  0  0  0  0  0  0  0  0
  -17.8925    5.0813  -15.6112 H   0  0  0  0  0  0  0  0  0  0  0  0
  -16.2324    0.7388  -15.6056 C   0  0  0  0  0  0  0  0  0  0  0  0
  -14.5962    0.3924  -17.4037 N   0  0  0  0  0  0  0  0  0  0  0  0
  -14.8974    1.1848  -16.2126 C   0  0  0  0  0  0  0  0  0  0  0  0
  -13.6163    0.5828  -17.7105 H   0  0  0  0  0  0  0  0  0  0  0  0
  -15.2533    0.6596  -18.1721 H   0  0  0  0  0  0  0  0  0  0  0  0
  -21.6554    0.2466  -14.3595 O   0  0  0  0  0  0  0  0  0  0  0  0
  -22.6325    0.3588  -13.3840 C   0  0  0  0  0  0  0  0  0  0  0  0
  -22.9048   -0.9812  -12.6949 C   0  0  0  0  0  0  0  0  0  0  0  0
  -24.3819   -1.3105  -12.7575 C   0  0  0  0  0  0  0  0  0  0  0  0
  -25.1048   -1.5763  -11.5790 C   0  0  0  0  0  0  0  0  0  0  0  0
  -26.4625   -1.9015  -11.6359 C   0  0  0  0  0  0  0  0  0  0  0  0
  -27.1219   -1.9605  -12.8707 C   0  0  0  0  0  0  0  0  0  0  0  0
  -28.4311   -2.2765  -12.9386 O   0  0  0  0  0  0  0  0  0  0  0  0
  -26.4132   -1.6891  -14.0455 C   0  0  0  0  0  0  0  0  0  0  0  0
  -25.0501   -1.3687  -13.9928 C   0  0  0  0  0  0  0  0  0  0  0  0
  -28.9545   -2.4738  -12.1485 H   0  0  0  0  0  0  0  0  0  0  0  0
 12 13  1  0  0  0
 12 14  1  0  0  0
 12 15  1  0  0  0
 13 11  1  0  0  0
 11  1  1  0  0  0
  1  2  2  0  0  0
  1  9  1  0  0  0
  2  3  1  0  0  0
  3  4  1  0  0  0
  3 10  1  0  0  0
  4  5  1  0  0  0
  4  9  2  0  0  0
  5  6  2  0  0  0
  6  7  1  0  0  0
  7 16  1  0  0  0
  7  8  2  0  0  0
 16 17  1  0  0  0
 17 18  1  0  0  0
 18 19  1  0  0  0
 19 20  1  0  0  0
 19 25  2  0  0  0
 20 21  2  0  0  0
 21 22  1  0  0  0
 22 23  1  0  0  0
 22 24  2  0  0  0
 23 26  1  0  0  0
 24 25  1  0  0  0
  8  9  1  0  0  0
M  END
> <minimizedAffinity>
-9.12938

$$$$
