CHEMBL262721


 32 36  0  0  0  0  0  0  0  0999 V2000
  -13.4594   -9.7809  -17.8162 C   0  0  0  0  0  0  0  0  0  0  0  0
  -13.7216   -8.4204  -17.9370 C   0  0  0  0  0  0  0  0  0  0  0  0
  -13.6134   -7.5757  -16.8131 C   0  0  0  0  0  0  0  0  0  0  0  0
  -13.2355   -8.1067  -15.5320 C   0  0  0  0  0  0  0  0  0  0  0  0
  -13.1417   -7.4590  -14.2652 C   0  0  0  0  0  0  0  0  0  0  0  0
  -12.7562   -8.1092  -13.1430 N   0  0  0  0  0  0  0  0  0  0  0  0
  -12.4881   -9.4057  -13.2420 C   0  0  0  0  0  0  0  0  0  0  0  0
  -12.5820  -10.1259  -14.3512 N   0  0  0  0  0  0  0  0  0  0  0  0
  -12.9521   -9.4838  -15.4575 C   0  0  0  0  0  0  0  0  0  0  0  0
  -13.0709  -10.2804  -16.5786 C   0  0  0  0  0  0  0  0  0  0  0  0
  -13.8736  -12.0487  -18.4452 C   0  0  0  0  0  0  0  0  0  0  0  0
  -13.4982  -10.7253  -18.7960 O   0  0  0  0  0  0  0  0  0  0  0  0
  -13.5031   -6.0947  -14.0982 N   0  0  0  0  0  0  0  0  0  0  0  0
  -12.6775   -5.5042  -14.0489 H   0  0  0  0  0  0  0  0  0  0  0  0
  -14.5528   -5.6423  -13.2503 C   0  0  0  0  0  0  0  0  0  0  0  0
  -15.8882   -5.7176  -13.6924 C   0  0  0  0  0  0  0  0  0  0  0  0
  -16.9511   -5.3107  -12.8851 C   0  0  0  0  0  0  0  0  0  0  0  0
  -16.6975   -4.8244  -11.6086 C   0  0  0  0  0  0  0  0  0  0  0  0
  -15.3853   -4.7422  -11.1427 C   0  0  0  0  0  0  0  0  0  0  0  0
  -14.3116   -5.1267  -11.9627 C   0  0  0  0  0  0  0  0  0  0  0  0
  -13.0078   -5.0221  -11.5365 O   0  0  0  0  0  0  0  0  0  0  0  0
  -12.9424   -5.1352  -10.1123 C   0  0  0  0  0  0  0  0  0  0  0  0
  -13.9096   -4.1994   -9.4008 C   0  0  0  0  0  0  0  0  0  0  0  0
  -15.2570   -4.3072   -9.8518 O   0  0  0  0  0  0  0  0  0  0  0  0
  -13.7746   -6.2093  -16.9052 O   0  0  0  0  0  0  0  0  0  0  0  0
  -13.0573   -5.4888  -17.9266 C   0  0  0  0  0  0  0  0  0  0  0  0
  -11.5440   -5.5379  -17.7004 C   0  0  0  0  0  0  0  0  0  0  0  0
  -11.1502   -4.8759  -16.3821 C   0  0  0  0  0  0  0  0  0  0  0  0
  -11.6331   -3.4941  -16.2619 N   0  0  0  0  0  0  0  0  0  0  0  0
  -11.3625   -3.0027  -14.9031 C   0  0  0  0  0  0  0  0  0  0  0  0
  -13.0635   -3.3474  -16.5666 C   0  0  0  0  0  0  0  0  0  0  0  0
  -13.4908   -4.0235  -17.8706 C   0  0  0  0  0  0  0  0  0  0  0  0
 11 12  1  0  0  0
 12  1  1  0  0  0
  1  2  1  0  0  0
  1 10  2  0  0  0
  2  3  2  0  0  0
  3 25  1  0  0  0
  3  4  1  0  0  0
 25 26  1  0  0  0
 26 27  1  0  0  0
 26 32  1  0  0  0
 27 28  1  0  0  0
 28 29  1  0  0  0
 29 30  1  0  0  0
 29 31  1  0  0  0
 31 32  1  0  0  0
  4  5  1  0  0  0
  4  9  2  0  0  0
  5 13  1  0  0  0
  5  6  2  0  0  0
 13 15  1  0  0  0
 13 14  1  0  0  0
 15 16  1  0  0  0
 15 20  2  0  0  0
 16 17  2  0  0  0
 17 18  1  0  0  0
 18 19  2  0  0  0
 19 20  1  0  0  0
 19 24  1  0  0  0
 20 21  1  0  0  0
 21 22  1  0  0  0
 22 23  1  0  0  0
 23 24  1  0  0  0
  6  7  1  0  0  0
  7  8  2  0  0  0
  8  9  1  0  0  0
  9 10  1  0  0  0
M  END
> <minimizedAffinity>
-6.90879

$$$$
