CHEMBL3911516


 33 37  0  0  0  0  0  0  0  0999 V2000
  -16.3888    2.3578  -15.8072 N   0  0  0  0  0  0  0  0  0  0  0  0
  -17.8294    2.2152  -15.7635 C   0  0  0  0  0  0  0  0  0  0  0  0
  -18.5267    3.4150  -15.9157 C   0  0  0  0  0  0  0  0  0  0  0  0
  -19.7578    3.5880  -15.3170 C   0  0  0  0  0  0  0  0  0  0  0  0
  -20.4208    2.5518  -14.7122 C   0  0  0  0  0  0  0  0  0  0  0  0
  -21.5008    2.9309  -14.0231 N   0  0  0  0  0  0  0  0  0  0  0  0
  -22.3068    1.9607  -13.5827 C   0  0  0  0  0  0  0  0  0  0  0  0
  -22.0844    0.6349  -13.8866 C   0  0  0  0  0  0  0  0  0  0  0  0
  -20.8954    0.2324  -14.4656 N   0  0  0  0  0  0  0  0  0  0  0  0
  -19.9723    1.2187  -14.8457 C   0  0  0  0  0  0  0  0  0  0  0  0
  -18.6044    1.0979  -15.3390 C   0  0  0  0  0  0  0  0  0  0  0  0
  -23.2519   -0.2379  -13.7444 C   0  0  0  0  0  0  0  0  0  0  0  0
  -24.1243   -0.7278  -14.7550 C   0  0  0  0  0  0  0  0  0  0  0  0
  -25.2606   -1.2441  -14.2679 N   0  0  0  0  0  0  0  0  0  0  0  0
  -25.1361   -1.0780  -12.9412 N   0  0  0  0  0  0  0  0  0  0  0  0
  -26.0689   -1.7090  -12.0351 C   0  0  0  0  0  0  0  0  0  0  0  0
  -24.0299   -0.3464  -12.5980 C   0  0  0  0  0  0  0  0  0  0  0  0
  -13.6227    4.8890  -16.0907 C   0  0  0  0  0  0  0  0  0  0  0  0
  -13.8029    5.3483  -17.3960 C   0  0  0  0  0  0  0  0  0  0  0  0
  -14.8301    4.8320  -18.1764 C   0  0  0  0  0  0  0  0  0  0  0  0
  -15.7002    3.8793  -17.6295 C   0  0  0  0  0  0  0  0  0  0  0  0
  -15.5831    3.4126  -16.3076 C   0  0  0  0  0  0  0  0  0  0  0  0
  -14.5148    3.9348  -15.5530 C   0  0  0  0  0  0  0  0  0  0  0  0
  -12.0031    4.2783  -14.4404 C   0  0  0  0  0  0  0  0  0  0  0  0
  -12.5869    5.2814  -15.2755 O   0  0  0  0  0  0  0  0  0  0  0  0
  -15.0789    5.1545  -19.4839 O   0  0  0  0  0  0  0  0  0  0  0  0
  -14.9503    6.5245  -19.8479 C   0  0  0  0  0  0  0  0  0  0  0  0
  -15.7668    0.9775  -15.8253 C   0  0  0  0  0  0  0  0  0  0  0  0
  -14.3650    0.7075  -15.2848 C   0  0  0  0  0  0  0  0  0  0  0  0
  -13.1407    0.4720  -15.8882 C   0  0  0  0  0  0  0  0  0  0  0  0
  -12.0755    0.3235  -14.9360 C   0  0  0  0  0  0  0  0  0  0  0  0
  -12.5104    0.4408  -13.6370 C   0  0  0  0  0  0  0  0  0  0  0  0
  -14.1924    0.7022  -13.5584 S   0  0  0  0  0  0  0  0  0  0  0  0
 24 25  1  0  0  0
 25 18  1  0  0  0
 18 19  1  0  0  0
 18 23  2  0  0  0
 19 20  2  0  0  0
 20 26  1  0  0  0
 20 21  1  0  0  0
 26 27  1  0  0  0
 21 22  2  0  0  0
 22  1  1  0  0  0
 22 23  1  0  0  0
  1 28  1  0  0  0
  1  2  1  0  0  0
 28 29  1  0  0  0
 29 30  2  0  0  0
 29 33  1  0  0  0
 30 31  1  0  0  0
 31 32  2  0  0  0
 32 33  1  0  0  0
  2  3  1  0  0  0
  2 11  2  0  0  0
  3  4  2  0  0  0
  4  5  1  0  0  0
  5  6  1  0  0  0
  5 10  2  0  0  0
  6  7  2  0  0  0
  7  8  1  0  0  0
  8 12  1  0  0  0
  8  9  2  0  0  0
 12 13  1  0  0  0
 12 17  2  0  0  0
 13 14  2  0  0  0
 14 15  1  0  0  0
 15 16  1  0  0  0
 15 17  1  0  0  0
  9 10  1  0  0  0
 10 11  1  0  0  0
M  END
> <minimizedAffinity>
-7.94701

$$$$
