CHEMBL2349008


 41 45  0  0  0  0  0  0  0  0999 V2000
  -29.4112   -2.1392   -4.9551 C   0  0  0  0  0  0  0  0  0  0  0  0
  -28.9144   -0.7787   -4.6357 C   0  0  0  0  0  0  0  0  0  0  0  0
  -28.1572   -0.1888   -5.5709 C   0  0  0  0  0  0  0  0  0  0  0  0
  -27.8502   -0.8946   -6.7552 C   0  0  0  0  0  0  0  0  0  0  0  0
  -27.1629   -0.5467   -7.8171 N   0  0  0  0  0  0  0  0  0  0  0  0
  -27.1760   -1.6341   -8.6445 C   0  0  0  0  0  0  0  0  0  0  0  0
  -27.8919   -2.6653   -8.0814 C   0  0  0  0  0  0  0  0  0  0  0  0
  -28.3339   -2.1848   -6.8756 N   0  0  0  0  0  0  0  0  0  0  0  0
  -29.1344   -2.8519   -5.9987 N   0  0  0  0  0  0  0  0  0  0  0  0
  -26.5558   -1.6674   -9.8767 N   0  0  0  0  0  0  0  0  0  0  0  0
  -27.1686   -1.2212  -11.0327 C   0  0  0  0  0  0  0  0  0  0  0  0
  -28.2874   -0.7208  -11.1137 O   0  0  0  0  0  0  0  0  0  0  0  0
  -25.6044   -2.0002   -9.8910 H   0  0  0  0  0  0  0  0  0  0  0  0
  -26.4042   -1.3518  -12.3108 C   0  0  0  0  0  0  0  0  0  0  0  0
  -26.9597   -1.8043  -13.5126 C   0  0  0  0  0  0  0  0  0  0  0  0
  -26.1888   -1.8028  -14.6819 C   0  0  0  0  0  0  0  0  0  0  0  0
  -24.8729   -1.3310  -14.6651 C   0  0  0  0  0  0  0  0  0  0  0  0
  -24.3041   -0.8610  -13.4754 C   0  0  0  0  0  0  0  0  0  0  0  0
  -25.0735   -0.8985  -12.3029 C   0  0  0  0  0  0  0  0  0  0  0  0
  -22.9132   -0.2777  -13.4306 C   0  0  0  0  0  0  0  0  0  0  0  0
  -22.8768    1.0587  -13.6943 F   0  0  0  0  0  0  0  0  0  0  0  0
  -22.3259   -0.4298  -12.2114 F   0  0  0  0  0  0  0  0  0  0  0  0
  -22.0716   -0.8586  -14.3287 F   0  0  0  0  0  0  0  0  0  0  0  0
  -30.2746   -2.5388   -3.9373 O   0  0  0  0  0  0  0  0  0  0  0  0
  -29.6606   -6.1828   -3.6736 C   0  0  0  0  0  0  0  0  0  0  0  0
  -30.9454   -6.6217   -3.3291 C   0  0  0  0  0  0  0  0  0  0  0  0
  -32.0095   -5.7280   -3.2099 C   0  0  0  0  0  0  0  0  0  0  0  0
  -31.8028   -4.3736   -3.4242 C   0  0  0  0  0  0  0  0  0  0  0  0
  -30.5271   -3.9201   -3.7674 C   0  0  0  0  0  0  0  0  0  0  0  0
  -29.4463   -4.8077   -3.8577 C   0  0  0  0  0  0  0  0  0  0  0  0
  -29.1748   -8.0431   -5.8913 O   0  0  0  0  0  0  0  0  0  0  0  0
  -28.4280   -7.9493   -4.9223 C   0  0  0  0  0  0  0  0  0  0  0  0
  -28.5758   -7.0826   -3.8461 N   0  0  0  0  0  0  0  0  0  0  0  0
  -27.7880   -6.9665   -3.2217 H   0  0  0  0  0  0  0  0  0  0  0  0
  -27.2140   -8.8016   -4.9366 C   0  0  0  0  0  0  0  0  0  0  0  0
  -27.0560   -9.6915   -6.0141 C   0  0  0  0  0  0  0  0  0  0  0  0
  -25.9714  -10.5661   -6.0575 C   0  0  0  0  0  0  0  0  0  0  0  0
  -25.0456  -10.5615   -5.0183 C   0  0  0  0  0  0  0  0  0  0  0  0
  -25.2170   -9.6867   -3.9471 C   0  0  0  0  0  0  0  0  0  0  0  0
  -24.3339   -9.7071   -2.9404 F   0  0  0  0  0  0  0  0  0  0  0  0
  -26.2916   -8.8033   -3.8912 C   0  0  0  0  0  0  0  0  0  0  0  0
 31 32  2  0  0  0
 32 33  1  0  0  0
 32 35  1  0  0  0
 33 25  1  0  0  0
 33 34  1  0  0  0
 25 26  1  0  0  0
 25 30  2  0  0  0
 26 27  2  0  0  0
 27 28  1  0  0  0
 28 29  2  0  0  0
 29 24  1  0  0  0
 29 30  1  0  0  0
 24  1  1  0  0  0
  1  2  1  0  0  0
  1  9  2  0  0  0
  2  3  2  0  0  0
  3  4  1  0  0  0
  4  5  2  0  0  0
  4  8  1  0  0  0
  5  6  1  0  0  0
  6 10  1  0  0  0
  6  7  2  0  0  0
 10 11  1  0  0  0
 10 13  1  0  0  0
 11 12  2  0  0  0
 11 14  1  0  0  0
 14 15  1  0  0  0
 14 19  2  0  0  0
 15 16  2  0  0  0
 16 17  1  0  0  0
 17 18  2  0  0  0
 18 20  1  0  0  0
 18 19  1  0  0  0
 20 21  1  0  0  0
 20 22  1  0  0  0
 20 23  1  0  0  0
  7  8  1  0  0  0
  8  9  1  0  0  0
 35 36  1  0  0  0
 35 41  2  0  0  0
 36 37  2  0  0  0
 37 38  1  0  0  0
 38 39  2  0  0  0
 39 40  1  0  0  0
 39 41  1  0  0  0
M  END
> <minimizedAffinity>
-11.39854

$$$$
