CHEMBL183051


 30 33  0  0  0  0  0  0  0  0999 V2000
  -30.6803   -8.8731   -6.7867 C   0  0  0  0  0  0  0  0  0  0  0  0
  -29.3536   -8.6266   -6.4403 C   0  0  0  0  0  0  0  0  0  0  0  0
  -28.8510   -7.3169   -6.4105 C   0  0  0  0  0  0  0  0  0  0  0  0
  -29.6229   -6.2140   -6.8223 C   0  0  0  0  0  0  0  0  0  0  0  0
  -30.9275   -6.4962   -7.2431 C   0  0  0  0  0  0  0  0  0  0  0  0
  -31.4582   -7.7910   -7.1934 C   0  0  0  0  0  0  0  0  0  0  0  0
  -29.0530   -4.8406   -6.8517 C   0  0  0  0  0  0  0  0  0  0  0  0
  -28.7075   -4.2350   -8.0863 C   0  0  0  0  0  0  0  0  0  0  0  0
  -28.1674   -2.9336   -8.1792 C   0  0  0  0  0  0  0  0  0  0  0  0
  -27.9647   -2.1806   -7.0324 C   0  0  0  0  0  0  0  0  0  0  0  0
  -28.2981   -2.7652   -5.8284 C   0  0  0  0  0  0  0  0  0  0  0  0
  -28.8223   -4.0637   -5.7156 C   0  0  0  0  0  0  0  0  0  0  0  0
  -29.0248   -4.3604   -4.2596 C   0  0  0  0  0  0  0  0  0  0  0  0
  -28.5604   -3.1705   -3.6016 N   0  0  0  0  0  0  0  0  0  0  0  0
  -28.1691   -2.1921   -4.4848 C   0  0  0  0  0  0  0  0  0  0  0  0
  -27.8010   -1.0670   -4.2169 O   0  0  0  0  0  0  0  0  0  0  0  0
  -28.6405   -2.9755   -2.6127 H   0  0  0  0  0  0  0  0  0  0  0  0
  -31.3098  -10.8716   -7.9339 C   0  0  0  0  0  0  0  0  0  0  0  0
  -32.0156  -12.4659   -7.6309 S   0  0  0  0  0  0  0  0  0  0  0  0
  -31.2610  -10.1436   -6.8654 N   0  0  0  0  0  0  0  0  0  0  0  0
  -32.6588  -12.6198   -8.7855 H   0  0  0  0  0  0  0  0  0  0  0  0
  -30.7513  -10.6230   -9.1639 N   0  0  0  0  0  0  0  0  0  0  0  0
  -31.3760  -10.8266   -9.9350 H   0  0  0  0  0  0  0  0  0  0  0  0
  -27.4896   -9.3721  -12.6267 C   0  0  0  0  0  0  0  0  0  0  0  0
  -27.7725  -10.0193  -11.3031 C   0  0  0  0  0  0  0  0  0  0  0  0
  -26.7405  -10.5285  -10.5147 C   0  0  0  0  0  0  0  0  0  0  0  0
  -27.0277  -11.1100   -9.2812 C   0  0  0  0  0  0  0  0  0  0  0  0
  -28.3486  -11.1848   -8.8221 C   0  0  0  0  0  0  0  0  0  0  0  0
  -29.4035  -10.6733   -9.5830 C   0  0  0  0  0  0  0  0  0  0  0  0
  -29.0924  -10.1039  -10.8327 C   0  0  0  0  0  0  0  0  0  0  0  0
 24 25  1  0  0  0
 25 26  1  0  0  0
 25 30  2  0  0  0
 26 27  2  0  0  0
 27 28  1  0  0  0
 28 29  2  0  0  0
 29 22  1  0  0  0
 29 30  1  0  0  0
 22 18  1  0  0  0
 22 23  1  0  0  0
 18 19  1  0  0  0
 18 20  2  0  0  0
 19 21  1  0  0  0
 20  1  1  0  0  0
  1  2  1  0  0  0
  1  6  2  0  0  0
  2  3  2  0  0  0
  3  4  1  0  0  0
  4  7  1  0  0  0
  4  5  2  0  0  0
  7  8  1  0  0  0
  7 12  2  0  0  0
  8  9  2  0  0  0
  9 10  1  0  0  0
 10 11  2  0  0  0
 11 12  1  0  0  0
 11 15  1  0  0  0
 12 13  1  0  0  0
 13 14  1  0  0  0
 14 15  1  0  0  0
 14 17  1  0  0  0
 15 16  2  0  0  0
  5  6  1  0  0  0
M  END
> <minimizedAffinity>
-8.66793

$$$$
