CHEMBL1992073


 28 32  0  0  0  0  0  0  0  0999 V2000
  -30.1979   -5.0765   -3.9990 C   0  0  0  0  0  0  0  0  0  0  0  0
  -30.8752   -3.9919   -4.8346 C   0  0  0  0  0  0  0  0  0  0  0  0
  -29.7867   -3.4206   -5.7470 C   0  0  0  0  0  0  0  0  0  0  0  0
  -28.6010   -4.4027   -5.6465 C   0  0  0  0  0  0  0  0  0  0  0  0
  -29.1471   -5.6667   -4.9580 C   0  0  0  0  0  0  0  0  0  0  0  0
  -29.7167   -6.6432   -5.9447 C   0  0  0  0  0  0  0  0  0  0  0  0
  -30.4433   -6.3233   -7.0074 N   0  0  0  0  0  0  0  0  0  0  0  0
  -30.8766   -7.5100   -7.5492 C   0  0  0  0  0  0  0  0  0  0  0  0
  -30.3998   -8.5701   -6.8231 C   0  0  0  0  0  0  0  0  0  0  0  0
  -30.5632  -10.0036   -6.9126 C   0  0  0  0  0  0  0  0  0  0  0  0
  -29.9798  -10.8402   -6.0915 N   0  0  0  0  0  0  0  0  0  0  0  0
  -29.2052  -10.2373   -5.1476 C   0  0  0  0  0  0  0  0  0  0  0  0
  -28.5130  -10.9174   -4.1854 N   0  0  0  0  0  0  0  0  0  0  0  0
  -27.8472  -10.0167   -3.3839 C   0  0  0  0  0  0  0  0  0  0  0  0
  -28.1145   -8.7391   -3.8412 C   0  0  0  0  0  0  0  0  0  0  0  0
  -28.9702   -8.8933   -4.9415 C   0  0  0  0  0  0  0  0  0  0  0  0
  -29.6193   -8.0146   -5.8301 N   0  0  0  0  0  0  0  0  0  0  0  0
  -28.5080  -11.9237   -4.0893 H   0  0  0  0  0  0  0  0  0  0  0  0
  -32.4246   -5.3824   -2.7657 C   0  0  0  0  0  0  0  0  0  0  0  0
  -31.1904   -6.0551   -3.3562 C   0  0  0  0  0  0  0  0  0  0  0  0
  -29.3234   -2.0574   -5.3352 N   0  0  0  0  0  0  0  0  0  0  0  0
  -29.0421   -2.0780   -4.3492 H   0  0  0  0  0  0  0  0  0  0  0  0
  -28.0226   -1.4133   -6.2336 S   0  0  0  0  0  0  0  0  0  0  0  0
  -26.8321   -1.6556   -5.4559 O   0  0  0  0  0  0  0  0  0  0  0  0
  -28.1405   -1.8411   -7.6095 O   0  0  0  0  0  0  0  0  0  0  0  0
  -28.3049    0.3815   -6.2871 C   0  0  0  0  0  0  0  0  0  0  0  0
  -28.2945    1.0000   -4.9089 C   0  0  0  0  0  0  0  0  0  0  0  0
  -29.5860    0.8683   -5.6692 C   0  0  0  0  0  0  0  0  0  0  0  0
 19 20  1  0  0  0
 20  1  1  0  0  0
  1  2  1  0  0  0
  1  5  1  0  0  0
  2  3  1  0  0  0
  3 21  1  0  0  0
  3  4  1  0  0  0
 21 23  1  0  0  0
 21 22  1  0  0  0
 23 24  2  0  0  0
 23 25  2  0  0  0
 23 26  1  0  0  0
 26 27  1  0  0  0
 26 28  1  0  0  0
 27 28  1  0  0  0
  4  5  1  0  0  0
  5  6  1  0  0  0
  6  7  2  0  0  0
  6 17  1  0  0  0
  7  8  1  0  0  0
  8  9  2  0  0  0
  9 10  1  0  0  0
  9 17  1  0  0  0
 10 11  2  0  0  0
 11 12  1  0  0  0
 12 13  1  0  0  0
 12 16  2  0  0  0
 13 14  1  0  0  0
 13 18  1  0  0  0
 14 15  2  0  0  0
 15 16  1  0  0  0
 16 17  1  0  0  0
M  END
> <minimizedAffinity>
-7.71882

$$$$
