CHEMBL3361128


 21 23  0  0  0  0  0  0  0  0999 V2000
  -29.5641   -3.8200   -7.3779 O   0  0  0  0  0  0  0  0  0  0  0  0
  -29.3458   -4.5992   -6.4766 C   0  0  0  0  0  0  0  0  0  0  0  0
  -28.8462   -4.3650   -5.0882 C   0  0  0  0  0  0  0  0  0  0  0  0
  -28.5193   -3.1932   -4.5270 C   0  0  0  0  0  0  0  0  0  0  0  0
  -28.7608   -5.5769   -4.3944 O   0  0  0  0  0  0  0  0  0  0  0  0
  -29.1888   -6.5462   -5.2715 C   0  0  0  0  0  0  0  0  0  0  0  0
  -29.2844   -7.8942   -5.0004 C   0  0  0  0  0  0  0  0  0  0  0  0
  -29.7539   -8.7299   -6.0218 C   0  0  0  0  0  0  0  0  0  0  0  0
  -30.1131   -8.2077   -7.2816 C   0  0  0  0  0  0  0  0  0  0  0  0
  -30.0095   -6.8398   -7.5418 C   0  0  0  0  0  0  0  0  0  0  0  0
  -29.5454   -6.0399   -6.5161 C   0  0  0  0  0  0  0  0  0  0  0  0
  -28.6003   -1.9028   -5.2110 C   0  0  0  0  0  0  0  0  0  0  0  0
  -27.5610   -1.4889   -6.0588 C   0  0  0  0  0  0  0  0  0  0  0  0
  -27.6017   -0.2321   -6.6718 C   0  0  0  0  0  0  0  0  0  0  0  0
  -28.6891    0.5998   -6.4352 C   0  0  0  0  0  0  0  0  0  0  0  0
  -28.7777    1.8479   -6.9885 O   0  0  0  0  0  0  0  0  0  0  0  0
  -29.7301    0.1819   -5.6094 C   0  0  0  0  0  0  0  0  0  0  0  0
  -30.7965    1.0071   -5.3886 O   0  0  0  0  0  0  0  0  0  0  0  0
  -29.6961   -1.0619   -4.9940 C   0  0  0  0  0  0  0  0  0  0  0  0
  -27.9461    2.0246   -7.4610 H   0  0  0  0  0  0  0  0  0  0  0  0
  -30.5783    1.8210   -5.8851 H   0  0  0  0  0  0  0  0  0  0  0  0
  1  2  2  0  0  0
  2  3  1  0  0  0
  2 11  1  0  0  0
  3  4  2  0  0  0
  3  5  1  0  0  0
  4 12  1  0  0  0
 12 13  1  0  0  0
 12 19  2  0  0  0
 13 14  2  0  0  0
 14 15  1  0  0  0
 15 16  1  0  0  0
 15 17  2  0  0  0
 16 20  1  0  0  0
 17 18  1  0  0  0
 17 19  1  0  0  0
 18 21  1  0  0  0
  5  6  1  0  0  0
  6  7  1  0  0  0
  6 11  2  0  0  0
  7  8  2  0  0  0
  8  9  1  0  0  0
  9 10  2  0  0  0
 10 11  1  0  0  0
M  END
> <minimizedAffinity>
-7.76604

$$$$
