CHEMBL3926038


 29 32  0  0  0  0  0  0  0  0999 V2000
  -28.6167   -2.9474   -7.6429 C   0  0  0  0  0  0  0  0  0  0  0  0
  -29.3340   -4.1384   -7.5467 C   0  0  0  0  0  0  0  0  0  0  0  0
  -29.4137   -4.8567   -6.3379 C   0  0  0  0  0  0  0  0  0  0  0  0
  -30.0717   -6.0892   -6.2080 C   0  0  0  0  0  0  0  0  0  0  0  0
  -30.1950   -6.7047   -5.0206 N   0  0  0  0  0  0  0  0  0  0  0  0
  -29.6285   -6.1037   -3.9734 C   0  0  0  0  0  0  0  0  0  0  0  0
  -28.9343   -4.9548   -3.9970 N   0  0  0  0  0  0  0  0  0  0  0  0
  -28.8355   -4.3338   -5.1781 C   0  0  0  0  0  0  0  0  0  0  0  0
  -28.1527   -3.1237   -5.2731 C   0  0  0  0  0  0  0  0  0  0  0  0
  -28.0292   -2.4117   -6.4811 C   0  0  0  0  0  0  0  0  0  0  0  0
  -27.2565   -2.2863   -9.5275 C   0  0  0  0  0  0  0  0  0  0  0  0
  -28.4932   -2.2791   -8.8302 O   0  0  0  0  0  0  0  0  0  0  0  0
  -30.5852   -6.7319   -7.3731 N   0  0  0  0  0  0  0  0  0  0  0  0
  -30.7706   -6.0226   -8.0751 H   0  0  0  0  0  0  0  0  0  0  0  0
  -30.0350   -7.9101   -7.9196 C   0  0  0  0  0  0  0  0  0  0  0  0
  -28.7250   -7.9089   -8.4218 C   0  0  0  0  0  0  0  0  0  0  0  0
  -28.1895   -9.0356   -9.0421 C   0  0  0  0  0  0  0  0  0  0  0  0
  -28.9559  -10.1940   -9.1579 C   0  0  0  0  0  0  0  0  0  0  0  0
  -28.2608  -11.5292   -9.9975 Cl  0  0  0  0  0  0  0  0  0  0  0  0
  -30.2445  -10.2287   -8.6109 C   0  0  0  0  0  0  0  0  0  0  0  0
  -31.2420  -11.6384   -8.7015 Cl  0  0  0  0  0  0  0  0  0  0  0  0
  -30.7761   -9.0955   -7.9805 C   0  0  0  0  0  0  0  0  0  0  0  0
  -27.3223   -1.2302   -6.3500 O   0  0  0  0  0  0  0  0  0  0  0  0
  -27.4117   -0.5642   -5.0901 C   0  0  0  0  0  0  0  0  0  0  0  0
  -28.3948    0.6073   -5.0759 C   0  0  0  0  0  0  0  0  0  0  0  0
  -29.8674    0.2198   -5.0495 C   0  0  0  0  0  0  0  0  0  0  0  0
  -30.4991    1.3080   -5.8886 C   0  0  0  0  0  0  0  0  0  0  0  0
  -29.4522    1.5154   -6.9559 C   0  0  0  0  0  0  0  0  0  0  0  0
  -28.1926    1.3739   -6.2901 O   0  0  0  0  0  0  0  0  0  0  0  0
 11 12  1  0  0  0
 12  1  1  0  0  0
  1  2  1  0  0  0
  1 10  2  0  0  0
  2  3  2  0  0  0
  3  4  1  0  0  0
  3  8  1  0  0  0
  4 13  1  0  0  0
  4  5  2  0  0  0
 13 15  1  0  0  0
 13 14  1  0  0  0
 15 16  1  0  0  0
 15 22  2  0  0  0
 16 17  2  0  0  0
 17 18  1  0  0  0
 18 19  1  0  0  0
 18 20  2  0  0  0
 20 21  1  0  0  0
 20 22  1  0  0  0
  5  6  1  0  0  0
  6  7  2  0  0  0
  7  8  1  0  0  0
  8  9  2  0  0  0
  9 10  1  0  0  0
 10 23  1  0  0  0
 23 24  1  0  0  0
 24 25  1  0  0  0
 25 26  1  0  0  0
 25 29  1  0  0  0
 26 27  1  0  0  0
 27 28  1  0  0  0
 28 29  1  0  0  0
M  END
> <minimizedAffinity>
-8.58166

$$$$
