CHEMBL1085733


 45 50  0  0  0  0  0  0  0  0999 V2000
  -13.0887   -3.9788  -19.1389 C   0  0  0  0  0  0  0  0  0  0  0  0
  -13.2237   -4.2305  -20.5195 C   0  0  0  0  0  0  0  0  0  0  0  0
  -13.1483   -3.1312  -21.2703 N   0  0  0  0  0  0  0  0  0  0  0  0
  -12.9765   -2.1225  -20.3648 N   0  0  0  0  0  0  0  0  0  0  0  0
  -12.8415   -0.7370  -20.6505 C   0  0  0  0  0  0  0  0  0  0  0  0
  -12.9777   -0.3451  -21.9822 N   0  0  0  0  0  0  0  0  0  0  0  0
  -12.5816    0.0960  -19.6198 C   0  0  0  0  0  0  0  0  0  0  0  0
  -12.5344   -0.5276  -18.2660 C   0  0  0  0  0  0  0  0  0  0  0  0
  -12.6752   -1.7839  -17.9888 N   0  0  0  0  0  0  0  0  0  0  0  0
  -12.8984   -2.6117  -19.0555 C   0  0  0  0  0  0  0  0  0  0  0  0
  -12.8209   -1.1229  -22.6272 H   0  0  0  0  0  0  0  0  0  0  0  0
  -12.4988    0.5158  -22.2273 H   0  0  0  0  0  0  0  0  0  0  0  0
  -13.1252   -6.6847  -15.7849 C   0  0  0  0  0  0  0  0  0  0  0  0
  -13.6433   -5.3850  -15.6985 C   0  0  0  0  0  0  0  0  0  0  0  0
  -13.6276   -4.5011  -16.7851 C   0  0  0  0  0  0  0  0  0  0  0  0
  -13.0904   -4.8942  -18.0100 C   0  0  0  0  0  0  0  0  0  0  0  0
  -12.5634   -6.1830  -18.1125 C   0  0  0  0  0  0  0  0  0  0  0  0
  -12.5972   -7.0616  -17.0251 C   0  0  0  0  0  0  0  0  0  0  0  0
  -11.3220  -10.1082  -11.8092 C   0  0  0  0  0  0  0  0  0  0  0  0
  -12.2910   -9.3187  -12.5581 N   0  0  0  0  0  0  0  0  0  0  0  0
  -11.9319   -7.8821  -12.5399 C   0  0  0  0  0  0  0  0  0  0  0  0
  -12.9596   -7.0251  -13.3115 C   0  0  0  0  0  0  0  0  0  0  0  0
  -13.0865   -7.5208  -14.6909 N   0  0  0  0  0  0  0  0  0  0  0  0
  -13.3829   -8.9584  -14.7967 C   0  0  0  0  0  0  0  0  0  0  0  0
  -12.3612   -9.7688  -13.9661 C   0  0  0  0  0  0  0  0  0  0  0  0
  -12.3989    1.5370  -19.7393 C   0  0  0  0  0  0  0  0  0  0  0  0
  -11.2354    2.0299  -20.3237 C   0  0  0  0  0  0  0  0  0  0  0  0
  -11.0814    3.3995  -20.5119 C   0  0  0  0  0  0  0  0  0  0  0  0
  -12.0723    4.3090  -20.1253 C   0  0  0  0  0  0  0  0  0  0  0  0
  -13.2401    3.8062  -19.5299 C   0  0  0  0  0  0  0  0  0  0  0  0
  -13.3970    2.4276  -19.3313 C   0  0  0  0  0  0  0  0  0  0  0  0
  -11.9547    5.7071  -20.3101 N   0  0  0  0  0  0  0  0  0  0  0  0
  -11.7928    6.3371  -21.5344 C   0  0  0  0  0  0  0  0  0  0  0  0
  -11.7925    5.7772  -22.6187 O   0  0  0  0  0  0  0  0  0  0  0  0
  -12.0322    6.2766  -19.4783 H   0  0  0  0  0  0  0  0  0  0  0  0
  -11.6098    7.8109  -21.5615 C   0  0  0  0  0  0  0  0  0  0  0  0
  -10.8842    8.4872  -22.5432 C   0  0  0  0  0  0  0  0  0  0  0  0
  -10.8723    9.8883  -22.5485 C   0  0  0  0  0  0  0  0  0  0  0  0
  -11.5825   10.6215  -21.5791 C   0  0  0  0  0  0  0  0  0  0  0  0
  -12.3031    9.9306  -20.5985 C   0  0  0  0  0  0  0  0  0  0  0  0
  -12.3073    8.5385  -20.5900 C   0  0  0  0  0  0  0  0  0  0  0  0
  -11.6020   12.1293  -21.5754 C   0  0  0  0  0  0  0  0  0  0  0  0
  -12.8408   12.6565  -21.7817 F   0  0  0  0  0  0  0  0  0  0  0  0
  -11.1620   12.6528  -20.3987 F   0  0  0  0  0  0  0  0  0  0  0  0
  -10.8037   12.6588  -22.5434 F   0  0  0  0  0  0  0  0  0  0  0  0
 19 20  1  0  0  0
 20 21  1  0  0  0
 20 25  1  0  0  0
 21 22  1  0  0  0
 22 23  1  0  0  0
 23 13  1  0  0  0
 23 24  1  0  0  0
 13 14  1  0  0  0
 13 18  2  0  0  0
 14 15  2  0  0  0
 15 16  1  0  0  0
 16  1  1  0  0  0
 16 17  2  0  0  0
  1  2  1  0  0  0
  1 10  2  0  0  0
  2  3  2  0  0  0
  3  4  1  0  0  0
  4  5  1  0  0  0
  4 10  1  0  0  0
  5  6  1  0  0  0
  5  7  2  0  0  0
  6 11  1  0  0  0
  6 12  1  0  0  0
  7 26  1  0  0  0
  7  8  1  0  0  0
 26 27  1  0  0  0
 26 31  2  0  0  0
 27 28  2  0  0  0
 28 29  1  0  0  0
 29 32  1  0  0  0
 29 30  2  0  0  0
 32 33  1  0  0  0
 32 35  1  0  0  0
 33 34  2  0  0  0
 33 36  1  0  0  0
 36 37  1  0  0  0
 36 41  2  0  0  0
 37 38  2  0  0  0
 38 39  1  0  0  0
 39 42  1  0  0  0
 39 40  2  0  0  0
 42 43  1  0  0  0
 42 44  1  0  0  0
 42 45  1  0  0  0
 40 41  1  0  0  0
 30 31  1  0  0  0
  8  9  2  0  0  0
  9 10  1  0  0  0
 17 18  1  0  0  0
 24 25  1  0  0  0
M  END
> <minimizedAffinity>
-3.72554

$$$$
