CHEMBL202153


 25 27  0  0  0  0  0  0  0  0999 V2000
  -14.8835    0.7681  -14.8469 C   0  0  0  0  0  0  0  0  0  0  0  0
  -13.5632    0.9827  -15.9307 S   0  0  0  0  0  0  0  0  0  0  0  0
  -14.5890    1.8201  -17.0097 C   0  0  0  0  0  0  0  0  0  0  0  0
  -15.8407    1.9416  -16.6362 N   0  0  0  0  0  0  0  0  0  0  0  0
  -16.0315    1.3345  -15.3990 C   0  0  0  0  0  0  0  0  0  0  0  0
  -14.9033   -1.2753  -13.5732 N   0  0  0  0  0  0  0  0  0  0  0  0
  -14.7352    0.1007  -13.5570 C   0  0  0  0  0  0  0  0  0  0  0  0
  -14.4665    0.7349  -12.5409 O   0  0  0  0  0  0  0  0  0  0  0  0
  -15.1221   -1.7017  -14.4682 H   0  0  0  0  0  0  0  0  0  0  0  0
  -13.9872   -4.8703   -9.1945 C   0  0  0  0  0  0  0  0  0  0  0  0
  -14.2600   -3.9596  -10.3545 C   0  0  0  0  0  0  0  0  0  0  0  0
  -15.4744   -3.2727  -10.4504 C   0  0  0  0  0  0  0  0  0  0  0  0
  -15.7202   -2.3917  -11.5106 C   0  0  0  0  0  0  0  0  0  0  0  0
  -14.7548   -2.1778  -12.4944 C   0  0  0  0  0  0  0  0  0  0  0  0
  -13.5517   -2.8873  -12.4019 C   0  0  0  0  0  0  0  0  0  0  0  0
  -12.6066   -2.7097  -13.3411 F   0  0  0  0  0  0  0  0  0  0  0  0
  -13.2977   -3.7685  -11.3511 C   0  0  0  0  0  0  0  0  0  0  0  0
  -17.4002    1.4025  -14.7735 C   0  0  0  0  0  0  0  0  0  0  0  0
  -18.4062    2.2482  -15.5611 C   0  0  0  0  0  0  0  0  0  0  0  0
  -19.8081    2.1043  -15.0174 C   0  0  0  0  0  0  0  0  0  0  0  0
  -20.3942    0.8428  -14.8838 C   0  0  0  0  0  0  0  0  0  0  0  0
  -21.6882    0.7575  -14.3912 C   0  0  0  0  0  0  0  0  0  0  0  0
  -22.4295    1.8271  -14.0334 N   0  0  0  0  0  0  0  0  0  0  0  0
  -21.8486    3.0371  -14.1788 C   0  0  0  0  0  0  0  0  0  0  0  0
  -20.5613    3.2257  -14.6614 C   0  0  0  0  0  0  0  0  0  0  0  0
 10 11  1  0  0  0
 11 12  1  0  0  0
 11 17  2  0  0  0
 12 13  2  0  0  0
 13 14  1  0  0  0
 14  6  1  0  0  0
 14 15  2  0  0  0
  6  7  1  0  0  0
  6  9  1  0  0  0
  7  8  2  0  0  0
  7  1  1  0  0  0
  1  2  1  0  0  0
  1  5  2  0  0  0
  2  3  1  0  0  0
  3  4  2  0  0  0
  4  5  1  0  0  0
  5 18  1  0  0  0
 18 19  1  0  0  0
 19 20  1  0  0  0
 20 21  1  0  0  0
 20 25  2  0  0  0
 21 22  2  0  0  0
 22 23  1  0  0  0
 23 24  2  0  0  0
 24 25  1  0  0  0
 15 16  1  0  0  0
 15 17  1  0  0  0
M  END
> <minimizedAffinity>
-7.97868

$$$$
