CHEMBL3981577


 31 33  0  0  0  0  0  0  0  0999 V2000
  -19.7162    0.6797  -15.2288 C   0  0  0  0  0  0  0  0  0  0  0  0
  -22.9046   -0.1611  -13.5966 C   0  0  0  0  0  0  0  0  0  0  0  0
  -23.5239    1.0042  -13.3660 N   0  0  0  0  0  0  0  0  0  0  0  0
  -22.8743    2.1206  -13.7577 C   0  0  0  0  0  0  0  0  0  0  0  0
  -21.6547    2.1244  -14.3970 C   0  0  0  0  0  0  0  0  0  0  0  0
  -20.9946    3.6096  -14.9494 Cl  0  0  0  0  0  0  0  0  0  0  0  0
  -21.0678    0.8828  -14.5718 C   0  0  0  0  0  0  0  0  0  0  0  0
  -21.6907   -0.2495  -14.1730 N   0  0  0  0  0  0  0  0  0  0  0  0
  -23.5950   -1.3035  -13.1936 N   0  0  0  0  0  0  0  0  0  0  0  0
  -23.1205   -2.1124  -13.5741 H   0  0  0  0  0  0  0  0  0  0  0  0
  -27.0950   -1.9519   -9.9098 C   0  0  0  0  0  0  0  0  0  0  0  0
  -26.3786   -1.6780  -11.1333 N   0  0  0  0  0  0  0  0  0  0  0  0
  -25.0355   -1.4724  -11.2669 C   0  0  0  0  0  0  0  0  0  0  0  0
  -24.8086   -1.4092  -12.6157 C   0  0  0  0  0  0  0  0  0  0  0  0
  -26.0874   -1.5196  -13.2051 C   0  0  0  0  0  0  0  0  0  0  0  0
  -27.0552   -1.6698  -12.2937 N   0  0  0  0  0  0  0  0  0  0  0  0
  -18.5555    1.2696  -14.4062 C   0  0  0  0  0  0  0  0  0  0  0  0
  -17.3556    1.8775  -15.1221 C   0  0  0  0  0  0  0  0  0  0  0  0
  -17.5761    2.8696  -16.1060 C   0  0  0  0  0  0  0  0  0  0  0  0
  -16.5306    3.6076  -16.6589 C   0  0  0  0  0  0  0  0  0  0  0  0
  -15.2380    3.3887  -16.2248 C   0  0  0  0  0  0  0  0  0  0  0  0
  -14.9870    2.3949  -15.2805 C   0  0  0  0  0  0  0  0  0  0  0  0
  -16.0127    1.5883  -14.7253 C   0  0  0  0  0  0  0  0  0  0  0  0
  -15.6104    0.4211  -13.7670 C   0  0  0  0  0  0  0  0  0  0  0  0
  -16.3641    0.4581  -12.4064 C   0  0  0  0  0  0  0  0  0  0  0  0
  -15.9288   -0.9640  -14.3713 C   0  0  0  0  0  0  0  0  0  0  0  0
  -14.1154    0.4684  -13.3637 C   0  0  0  0  0  0  0  0  0  0  0  0
  -13.2533   -0.3396  -14.0496 N   0  0  0  0  0  0  0  0  0  0  0  0
  -13.6594    1.2713  -12.5512 O   0  0  0  0  0  0  0  0  0  0  0  0
  -13.5823   -1.1845  -14.4997 H   0  0  0  0  0  0  0  0  0  0  0  0
  -12.2915   -0.3295  -13.7328 H   0  0  0  0  0  0  0  0  0  0  0  0
 11 12  1  0  0  0
 12 13  1  0  0  0
 12 16  1  0  0  0
 13 14  2  0  0  0
 14  9  1  0  0  0
 14 15  1  0  0  0
  9  2  1  0  0  0
  9 10  1  0  0  0
  2  3  1  0  0  0
  2  8  2  0  0  0
  3  4  2  0  0  0
  4  5  1  0  0  0
  5  6  1  0  0  0
  5  7  2  0  0  0
  7  1  1  0  0  0
  7  8  1  0  0  0
  1 17  1  0  0  0
 17 18  1  0  0  0
 18 19  1  0  0  0
 18 23  2  0  0  0
 19 20  2  0  0  0
 20 21  1  0  0  0
 21 22  2  0  0  0
 22 23  1  0  0  0
 23 24  1  0  0  0
 24 25  1  0  0  0
 24 26  1  0  0  0
 24 27  1  0  0  0
 27 28  1  0  0  0
 27 29  2  0  0  0
 28 30  1  0  0  0
 28 31  1  0  0  0
 15 16  2  0  0  0
M  END
> <minimizedAffinity>
-8.07829

$$$$
