CHEMBL3752508


 33 37  0  0  0  0  0  0  0  0999 V2000
  -30.6608   -5.9920   -5.3221 N   0  0  0  0  0  0  0  0  0  0  0  0
  -30.5809   -7.1663   -4.4110 C   0  0  0  0  0  0  0  0  0  0  0  0
  -29.2182   -7.4032   -3.6995 C   0  0  0  0  0  0  0  0  0  0  0  0
  -28.0775   -7.2940   -4.6209 N   0  0  0  0  0  0  0  0  0  0  0  0
  -28.1391   -6.2356   -5.6333 C   0  0  0  0  0  0  0  0  0  0  0  0
  -29.5334   -6.1163   -6.2752 C   0  0  0  0  0  0  0  0  0  0  0  0
  -27.0578   -8.2399   -4.5753 C   0  0  0  0  0  0  0  0  0  0  0  0
  -25.9827   -7.9605   -3.8095 N   0  0  0  0  0  0  0  0  0  0  0  0
  -24.9520   -8.8676   -3.6250 N   0  0  0  0  0  0  0  0  0  0  0  0
  -25.0138  -10.1072   -4.1607 C   0  0  0  0  0  0  0  0  0  0  0  0
  -26.1388  -10.4886   -4.9284 C   0  0  0  0  0  0  0  0  0  0  0  0
  -26.3596  -11.8073   -5.4187 C   0  0  0  0  0  0  0  0  0  0  0  0
  -27.3865  -12.1201   -6.3068 C   0  0  0  0  0  0  0  0  0  0  0  0
  -28.2261  -11.1186   -6.7408 C   0  0  0  0  0  0  0  0  0  0  0  0
  -28.0762   -9.8352   -6.2200 C   0  0  0  0  0  0  0  0  0  0  0  0
  -27.1122   -9.4992   -5.2280 C   0  0  0  0  0  0  0  0  0  0  0  0
  -23.7907  -10.9305   -3.9371 C   0  0  0  0  0  0  0  0  0  0  0  0
  -22.8146  -11.0821   -4.9413 C   0  0  0  0  0  0  0  0  0  0  0  0
  -21.6570  -11.8454   -4.7331 C   0  0  0  0  0  0  0  0  0  0  0  0
  -21.4357  -12.4652   -3.5076 C   0  0  0  0  0  0  0  0  0  0  0  0
  -22.3950  -12.3653   -2.5078 C   0  0  0  0  0  0  0  0  0  0  0  0
  -23.5689  -11.6412   -2.7389 C   0  0  0  0  0  0  0  0  0  0  0  0
  -30.6051   -4.7287   -4.5489 C   0  0  0  0  0  0  0  0  0  0  0  0
  -30.9536   -3.4596   -6.5545 O   0  0  0  0  0  0  0  0  0  0  0  0
  -30.4051   -3.5054   -5.4569 C   0  0  0  0  0  0  0  0  0  0  0  0
  -29.5768   -2.5438   -4.9078 N   0  0  0  0  0  0  0  0  0  0  0  0
  -29.1512   -2.7839   -4.0195 H   0  0  0  0  0  0  0  0  0  0  0  0
  -29.2692   -1.2822   -5.4551 C   0  0  0  0  0  0  0  0  0  0  0  0
  -28.1045   -1.0218   -6.1814 C   0  0  0  0  0  0  0  0  0  0  0  0
  -27.8499    0.2566   -6.6861 C   0  0  0  0  0  0  0  0  0  0  0  0
  -28.7564    1.2890   -6.4645 C   0  0  0  0  0  0  0  0  0  0  0  0
  -29.9307    1.0368   -5.7586 C   0  0  0  0  0  0  0  0  0  0  0  0
  -30.1929   -0.2464   -5.2680 C   0  0  0  0  0  0  0  0  0  0  0  0
 24 25  2  0  0  0
 25 23  1  0  0  0
 25 26  1  0  0  0
 23  1  1  0  0  0
  1  2  1  0  0  0
  1  6  1  0  0  0
  2  3  1  0  0  0
  3  4  1  0  0  0
  4  7  1  0  0  0
  4  5  1  0  0  0
  7  8  1  0  0  0
  7 16  2  0  0  0
  8  9  2  0  0  0
  9 10  1  0  0  0
 10 17  1  0  0  0
 10 11  2  0  0  0
 17 18  1  0  0  0
 17 22  2  0  0  0
 18 19  2  0  0  0
 19 20  1  0  0  0
 20 21  2  0  0  0
 21 22  1  0  0  0
 11 12  1  0  0  0
 11 16  1  0  0  0
 12 13  2  0  0  0
 13 14  1  0  0  0
 14 15  2  0  0  0
 15 16  1  0  0  0
  5  6  1  0  0  0
 26 28  1  0  0  0
 26 27  1  0  0  0
 28 29  1  0  0  0
 28 33  2  0  0  0
 29 30  2  0  0  0
 30 31  1  0  0  0
 31 32  2  0  0  0
 32 33  1  0  0  0
M  END
> <minimizedAffinity>
-8.08954

$$$$
