CHEMBL2018753


 31 33  0  0  0  0  0  0  0  0999 V2000
  -30.8212   -8.1031   -6.0880 N   0  0  0  0  0  0  0  0  0  0  0  0
  -31.7849   -8.3954   -5.9696 H   0  0  0  0  0  0  0  0  0  0  0  0
  -30.1734   -8.9303   -7.0343 C   0  0  0  0  0  0  0  0  0  0  0  0
  -30.8370   -9.2329   -8.1658 N   0  0  0  0  0  0  0  0  0  0  0  0
  -30.1777   -9.9604   -9.0672 C   0  0  0  0  0  0  0  0  0  0  0  0
  -28.9185  -10.3891   -8.9552 N   0  0  0  0  0  0  0  0  0  0  0  0
  -28.2745  -10.0813   -7.8211 C   0  0  0  0  0  0  0  0  0  0  0  0
  -26.9482  -10.4492   -7.6668 C   0  0  0  0  0  0  0  0  0  0  0  0
  -26.1548  -10.1821   -6.5166 C   0  0  0  0  0  0  0  0  0  0  0  0
  -26.7589   -9.5174   -5.4501 C   0  0  0  0  0  0  0  0  0  0  0  0
  -28.1087   -9.1218   -5.6169 C   0  0  0  0  0  0  0  0  0  0  0  0
  -28.8657   -9.3767   -6.7851 C   0  0  0  0  0  0  0  0  0  0  0  0
  -24.9223  -10.6893   -6.7700 O   0  0  0  0  0  0  0  0  0  0  0  0
  -24.6102  -11.6635   -7.7275 C   0  0  0  0  0  0  0  0  0  0  0  0
  -26.3868   -9.1270   -4.2054 O   0  0  0  0  0  0  0  0  0  0  0  0
  -25.1836   -9.4306   -3.5535 C   0  0  0  0  0  0  0  0  0  0  0  0
  -30.0650   -3.9573   -5.5785 C   0  0  0  0  0  0  0  0  0  0  0  0
  -30.5755   -4.7437   -4.5378 C   0  0  0  0  0  0  0  0  0  0  0  0
  -30.8266   -6.1076   -4.7112 C   0  0  0  0  0  0  0  0  0  0  0  0
  -30.6113   -6.7180   -5.9458 C   0  0  0  0  0  0  0  0  0  0  0  0
  -30.0849   -5.9385   -6.9873 C   0  0  0  0  0  0  0  0  0  0  0  0
  -29.8299   -4.5740   -6.8144 C   0  0  0  0  0  0  0  0  0  0  0  0
  -29.1861   -3.6874   -8.1530 Cl  0  0  0  0  0  0  0  0  0  0  0  0
  -28.6691   -1.9984   -4.9861 C   0  0  0  0  0  0  0  0  0  0  0  0
  -27.5763   -2.5494   -4.8955 O   0  0  0  0  0  0  0  0  0  0  0  0
  -29.8339   -2.5708   -5.4197 N   0  0  0  0  0  0  0  0  0  0  0  0
  -30.5946   -1.9376   -5.6201 H   0  0  0  0  0  0  0  0  0  0  0  0
  -28.8892   -0.7108   -4.6090 O   0  0  0  0  0  0  0  0  0  0  0  0
  -28.0943    0.2438   -5.3337 C   0  0  0  0  0  0  0  0  0  0  0  0
  -30.3622    1.2038   -5.7651 C   0  0  0  0  0  0  0  0  0  0  0  0
  -28.9401    1.0736   -6.2911 C   0  0  0  0  0  0  0  0  0  0  0  0
 30 31  1  0  0  0
 31 29  1  0  0  0
 29 28  1  0  0  0
 28 24  1  0  0  0
 24 25  2  0  0  0
 24 26  1  0  0  0
 26 17  1  0  0  0
 26 27  1  0  0  0
 17 18  1  0  0  0
 17 22  2  0  0  0
 18 19  2  0  0  0
 19 20  1  0  0  0
 20  1  1  0  0  0
 20 21  2  0  0  0
  1  3  1  0  0  0
  1  2  1  0  0  0
  3  4  1  0  0  0
  3 12  2  0  0  0
  4  5  2  0  0  0
  5  6  1  0  0  0
  6  7  2  0  0  0
  7  8  1  0  0  0
  7 12  1  0  0  0
  8  9  2  0  0  0
  9 13  1  0  0  0
  9 10  1  0  0  0
 13 14  1  0  0  0
 10 15  1  0  0  0
 10 11  2  0  0  0
 15 16  1  0  0  0
 11 12  1  0  0  0
 21 22  1  0  0  0
 22 23  1  0  0  0
M  END
> <minimizedAffinity>
-7.57863

$$$$
