CHEMBL234625


 30 33  0  0  0  0  0  0  0  0999 V2000
  -28.1271   -2.2626   -8.3495 C   0  0  0  0  0  0  0  0  0  0  0  0
  -27.7112   -1.6346   -7.2445 N   0  0  0  0  0  0  0  0  0  0  0  0
  -27.6989   -2.3602   -6.1043 C   0  0  0  0  0  0  0  0  0  0  0  0
  -28.0858   -3.6853   -6.0117 C   0  0  0  0  0  0  0  0  0  0  0  0
  -28.0979   -4.4366   -4.4677 Cl  0  0  0  0  0  0  0  0  0  0  0  0
  -28.5003   -4.2586   -7.2003 C   0  0  0  0  0  0  0  0  0  0  0  0
  -28.5008   -3.5503   -8.3580 N   0  0  0  0  0  0  0  0  0  0  0  0
  -29.0926   -5.6099   -7.3430 C   0  0  0  0  0  0  0  0  0  0  0  0
  -28.3569   -6.6048   -8.0185 C   0  0  0  0  0  0  0  0  0  0  0  0
  -28.9049   -7.8464   -8.3589 C   0  0  0  0  0  0  0  0  0  0  0  0
  -30.2020   -8.1490   -7.9277 C   0  0  0  0  0  0  0  0  0  0  0  0
  -31.0835   -9.2405   -8.1388 C   0  0  0  0  0  0  0  0  0  0  0  0
  -32.1060   -9.1143   -7.2276 C   0  0  0  0  0  0  0  0  0  0  0  0
  -31.9815   -7.8881   -6.6278 N   0  0  0  0  0  0  0  0  0  0  0  0
  -30.8564   -7.2445   -7.0942 C   0  0  0  0  0  0  0  0  0  0  0  0
  -30.3538   -5.9600   -6.8236 C   0  0  0  0  0  0  0  0  0  0  0  0
  -32.5920   -7.5270   -5.9083 H   0  0  0  0  0  0  0  0  0  0  0  0
  -28.1862   -1.5233   -9.5309 N   0  0  0  0  0  0  0  0  0  0  0  0
  -29.1479   -1.4566   -9.8344 H   0  0  0  0  0  0  0  0  0  0  0  0
  -25.4166   -1.5883  -12.7245 C   0  0  0  0  0  0  0  0  0  0  0  0
  -24.9618   -1.4781  -11.4061 C   0  0  0  0  0  0  0  0  0  0  0  0
  -25.8664   -1.4831  -10.3441 C   0  0  0  0  0  0  0  0  0  0  0  0
  -27.2450   -1.5638  -10.5738 C   0  0  0  0  0  0  0  0  0  0  0  0
  -27.6936   -1.7281  -11.8866 C   0  0  0  0  0  0  0  0  0  0  0  0
  -26.7919   -1.7236  -12.9551 C   0  0  0  0  0  0  0  0  0  0  0  0
  -24.4418   -1.5294  -13.8795 C   0  0  0  0  0  0  0  0  0  0  0  0
  -23.1037   -0.8823  -13.4813 C   0  0  0  0  0  0  0  0  0  0  0  0
  -23.3239    1.5054  -13.4032 C   0  0  0  0  0  0  0  0  0  0  0  0
  -22.7985    0.3801  -14.1834 N   0  0  0  0  0  0  0  0  0  0  0  0
  -21.3629    0.5582  -14.4033 C   0  0  0  0  0  0  0  0  0  0  0  0
 28 29  1  0  0  0
 29 30  1  0  0  0
 29 27  1  0  0  0
 27 26  1  0  0  0
 26 20  1  0  0  0
 20 21  1  0  0  0
 20 25  2  0  0  0
 21 22  2  0  0  0
 22 23  1  0  0  0
 23 18  1  0  0  0
 23 24  2  0  0  0
 18  1  1  0  0  0
 18 19  1  0  0  0
  1  2  1  0  0  0
  1  7  2  0  0  0
  2  3  2  0  0  0
  3  4  1  0  0  0
  4  5  1  0  0  0
  4  6  2  0  0  0
  6  8  1  0  0  0
  6  7  1  0  0  0
  8  9  1  0  0  0
  8 16  2  0  0  0
  9 10  2  0  0  0
 10 11  1  0  0  0
 11 12  1  0  0  0
 11 15  2  0  0  0
 12 13  2  0  0  0
 13 14  1  0  0  0
 14 15  1  0  0  0
 14 17  1  0  0  0
 15 16  1  0  0  0
 24 25  1  0  0  0
M  END
> <minimizedAffinity>
-8.90104

$$$$
