CHEMBL606039


 26 28  0  0  0  0  0  0  0  0999 V2000
  -29.3394   -7.4829   -5.1686 C   0  0  0  0  0  0  0  0  0  0  0  0
  -28.1217   -7.7455   -4.5833 C   0  0  0  0  0  0  0  0  0  0  0  0
  -27.4937   -8.7613   -5.2341 O   0  0  0  0  0  0  0  0  0  0  0  0
  -28.3202   -9.1646   -6.2429 C   0  0  0  0  0  0  0  0  0  0  0  0
  -28.0596  -10.2280   -7.0131 N   0  0  0  0  0  0  0  0  0  0  0  0
  -29.0349  -10.4594   -7.8895 C   0  0  0  0  0  0  0  0  0  0  0  0
  -28.9370  -11.6281   -8.6352 N   0  0  0  0  0  0  0  0  0  0  0  0
  -30.1532   -9.7443   -8.0586 N   0  0  0  0  0  0  0  0  0  0  0  0
  -30.3758   -8.6679   -7.2762 C   0  0  0  0  0  0  0  0  0  0  0  0
  -31.5377   -7.9636   -7.4823 N   0  0  0  0  0  0  0  0  0  0  0  0
  -29.4500   -8.3606   -6.2783 C   0  0  0  0  0  0  0  0  0  0  0  0
  -28.3912  -12.3024   -8.1145 H   0  0  0  0  0  0  0  0  0  0  0  0
  -29.8699  -11.9104   -8.9058 H   0  0  0  0  0  0  0  0  0  0  0  0
  -32.1892   -8.3271   -8.1598 H   0  0  0  0  0  0  0  0  0  0  0  0
  -31.7293   -7.1159   -6.9650 H   0  0  0  0  0  0  0  0  0  0  0  0
  -30.5532   -5.3327   -4.7605 C   0  0  0  0  0  0  0  0  0  0  0  0
  -31.5891   -4.6338   -3.9256 C   0  0  0  0  0  0  0  0  0  0  0  0
  -30.3372   -6.6504   -4.5860 C   0  0  0  0  0  0  0  0  0  0  0  0
  -28.7089   -3.6514   -5.2126 C   0  0  0  0  0  0  0  0  0  0  0  0
  -28.0583   -2.8141   -6.1301 C   0  0  0  0  0  0  0  0  0  0  0  0
  -28.4125   -2.8255   -7.4819 C   0  0  0  0  0  0  0  0  0  0  0  0
  -29.4018   -3.6899   -7.9369 C   0  0  0  0  0  0  0  0  0  0  0  0
  -30.0642   -4.5206   -7.0348 C   0  0  0  0  0  0  0  0  0  0  0  0
  -29.7443   -4.4935   -5.6678 C   0  0  0  0  0  0  0  0  0  0  0  0
  -28.7136   -2.6165   -3.0652 C   0  0  0  0  0  0  0  0  0  0  0  0
  -28.3785   -3.7360   -3.8809 O   0  0  0  0  0  0  0  0  0  0  0  0
 25 26  1  0  0  0
 26 19  1  0  0  0
 19 20  1  0  0  0
 19 24  2  0  0  0
 20 21  2  0  0  0
 21 22  1  0  0  0
 22 23  2  0  0  0
 23 24  1  0  0  0
 24 16  1  0  0  0
 16 17  1  0  0  0
 16 18  2  0  0  0
 18  1  1  0  0  0
  1  2  2  0  0  0
  1 11  1  0  0  0
  2  3  1  0  0  0
  3  4  1  0  0  0
  4  5  1  0  0  0
  4 11  2  0  0  0
  5  6  2  0  0  0
  6  7  1  0  0  0
  6  8  1  0  0  0
  7 12  1  0  0  0
  7 13  1  0  0  0
  8  9  2  0  0  0
  9 10  1  0  0  0
  9 11  1  0  0  0
 10 14  1  0  0  0
 10 15  1  0  0  0
M  END
> <minimizedAffinity>
-6.90640

$$$$
