CHEMBL1684800


 45 48  0  0  0  0  0  0  0  0999 V2000
  -25.2465   -1.1472  -12.4185 C   0  0  0  0  0  0  0  0  0  0  0  0
  -25.7031   -1.1753  -11.0916 C   0  0  0  0  0  0  0  0  0  0  0  0
  -27.0278   -1.4905  -10.7815 C   0  0  0  0  0  0  0  0  0  0  0  0
  -27.8938   -1.8536  -11.8100 C   0  0  0  0  0  0  0  0  0  0  0  0
  -27.4422   -1.8708  -13.1369 C   0  0  0  0  0  0  0  0  0  0  0  0
  -26.1180   -1.5252  -13.4586 C   0  0  0  0  0  0  0  0  0  0  0  0
  -25.6783   -1.5830  -14.8979 C   0  0  0  0  0  0  0  0  0  0  0  0
  -27.5055   -1.4676   -9.4505 N   0  0  0  0  0  0  0  0  0  0  0  0
  -27.6473   -2.5957   -8.6598 C   0  0  0  0  0  0  0  0  0  0  0  0
  -27.2333   -3.7145   -8.9601 O   0  0  0  0  0  0  0  0  0  0  0  0
  -28.3395   -2.3193   -7.4899 N   0  0  0  0  0  0  0  0  0  0  0  0
  -27.4729   -0.5842   -8.9614 H   0  0  0  0  0  0  0  0  0  0  0  0
  -29.0486   -1.6057   -7.5922 H   0  0  0  0  0  0  0  0  0  0  0  0
  -28.5893   -3.3296   -6.5354 C   0  0  0  0  0  0  0  0  0  0  0  0
  -28.0812   -3.1822   -5.2493 C   0  0  0  0  0  0  0  0  0  0  0  0
  -28.3841   -4.1348   -4.2738 C   0  0  0  0  0  0  0  0  0  0  0  0
  -29.1601   -5.2622   -4.5818 C   0  0  0  0  0  0  0  0  0  0  0  0
  -29.4486   -6.3685   -3.2907 Cl  0  0  0  0  0  0  0  0  0  0  0  0
  -29.6536   -5.4454   -5.8762 C   0  0  0  0  0  0  0  0  0  0  0  0
  -29.3525   -4.4618   -6.8453 C   0  0  0  0  0  0  0  0  0  0  0  0
  -30.5006   -6.6104   -6.3191 C   0  0  0  0  0  0  0  0  0  0  0  0
  -31.6455   -6.8286   -5.6225 F   0  0  0  0  0  0  0  0  0  0  0  0
  -30.8891   -6.4895   -7.6223 F   0  0  0  0  0  0  0  0  0  0  0  0
  -29.8110   -7.7869   -6.2566 F   0  0  0  0  0  0  0  0  0  0  0  0
  -23.6424    0.1187  -13.7427 N   0  0  0  0  0  0  0  0  0  0  0  0
  -23.8300   -0.7347  -12.6708 C   0  0  0  0  0  0  0  0  0  0  0  0
  -22.9376   -1.1749  -11.9468 O   0  0  0  0  0  0  0  0  0  0  0  0
  -24.4265    0.4126  -14.3109 H   0  0  0  0  0  0  0  0  0  0  0  0
  -20.7275    1.9268  -14.6252 N   0  0  0  0  0  0  0  0  0  0  0  0
  -20.2844    0.7037  -15.0031 N   0  0  0  0  0  0  0  0  0  0  0  0
  -21.3028   -0.1049  -14.7067 C   0  0  0  0  0  0  0  0  0  0  0  0
  -22.4036    0.5826  -14.1500 C   0  0  0  0  0  0  0  0  0  0  0  0
  -22.0083    1.9070  -14.1042 C   0  0  0  0  0  0  0  0  0  0  0  0
  -22.6676    3.0161  -13.6854 N   0  0  0  0  0  0  0  0  0  0  0  0
  -23.5302    2.9392  -13.1525 H   0  0  0  0  0  0  0  0  0  0  0  0
  -22.1822    3.8896  -13.4976 H   0  0  0  0  0  0  0  0  0  0  0  0
  -19.9030    3.0898  -14.9315 C   0  0  0  0  0  0  0  0  0  0  0  0
  -15.7220    2.0439  -15.4039 C   0  0  0  0  0  0  0  0  0  0  0  0
  -16.4964    1.4185  -14.4284 C   0  0  0  0  0  0  0  0  0  0  0  0
  -17.8412    1.7691  -14.2657 C   0  0  0  0  0  0  0  0  0  0  0  0
  -18.4346    2.7544  -15.0696 C   0  0  0  0  0  0  0  0  0  0  0  0
  -17.6503    3.3759  -16.0504 C   0  0  0  0  0  0  0  0  0  0  0  0
  -16.3070    3.0215  -16.2114 C   0  0  0  0  0  0  0  0  0  0  0  0
  -13.5348    2.9155  -15.7153 C   0  0  0  0  0  0  0  0  0  0  0  0
  -14.4044    1.7906  -15.6708 O   0  0  0  0  0  0  0  0  0  0  0  0
 44 45  1  0  0  0
 45 38  1  0  0  0
 38 39  1  0  0  0
 38 43  2  0  0  0
 39 40  2  0  0  0
 40 41  1  0  0  0
 41 37  1  0  0  0
 41 42  2  0  0  0
 37 29  1  0  0  0
 29 30  1  0  0  0
 29 33  1  0  0  0
 30 31  2  0  0  0
 31 32  1  0  0  0
 32 25  1  0  0  0
 32 33  2  0  0  0
 25 26  1  0  0  0
 25 28  1  0  0  0
 26 27  2  0  0  0
 26  1  1  0  0  0
  1  2  1  0  0  0
  1  6  2  0  0  0
  2  3  2  0  0  0
  3  8  1  0  0  0
  3  4  1  0  0  0
  8  9  1  0  0  0
  8 12  1  0  0  0
  9 10  2  0  0  0
  9 11  1  0  0  0
 11 14  1  0  0  0
 11 13  1  0  0  0
 14 15  1  0  0  0
 14 20  2  0  0  0
 15 16  2  0  0  0
 16 17  1  0  0  0
 17 18  1  0  0  0
 17 19  2  0  0  0
 19 21  1  0  0  0
 19 20  1  0  0  0
 21 22  1  0  0  0
 21 23  1  0  0  0
 21 24  1  0  0  0
  4  5  2  0  0  0
  5  6  1  0  0  0
  6  7  1  0  0  0
 33 34  1  0  0  0
 34 35  1  0  0  0
 34 36  1  0  0  0
 42 43  1  0  0  0
M  END
> <minimizedAffinity>
-11.17517

$$$$
