CHEMBL3981466


 39 42  0  0  0  0  0  0  0  0999 V2000
  -24.7669   -1.2250  -13.8332 C   0  0  0  0  0  0  0  0  0  0  0  0
  -25.8267   -1.6939  -13.0465 C   0  0  0  0  0  0  0  0  0  0  0  0
  -25.6616   -2.0242  -11.6977 C   0  0  0  0  0  0  0  0  0  0  0  0
  -24.4175   -1.7886  -11.1062 C   0  0  0  0  0  0  0  0  0  0  0  0
  -23.3553   -1.2823  -11.8753 C   0  0  0  0  0  0  0  0  0  0  0  0
  -23.5244   -0.9799  -13.2393 C   0  0  0  0  0  0  0  0  0  0  0  0
  -26.7228   -2.5911  -10.9404 N   0  0  0  0  0  0  0  0  0  0  0  0
  -27.0542   -2.1604   -9.6626 C   0  0  0  0  0  0  0  0  0  0  0  0
  -26.5894   -1.1585   -9.1258 O   0  0  0  0  0  0  0  0  0  0  0  0
  -27.9477   -3.0093   -9.0250 N   0  0  0  0  0  0  0  0  0  0  0  0
  -27.4460   -3.0857  -11.4451 H   0  0  0  0  0  0  0  0  0  0  0  0
  -27.8266   -3.9839   -9.2650 H   0  0  0  0  0  0  0  0  0  0  0  0
  -28.3684   -2.7322   -7.6993 C   0  0  0  0  0  0  0  0  0  0  0  0
  -28.7439   -3.7879   -6.8755 C   0  0  0  0  0  0  0  0  0  0  0  0
  -29.0921   -3.5394   -5.5449 C   0  0  0  0  0  0  0  0  0  0  0  0
  -29.1211   -2.2329   -5.0362 C   0  0  0  0  0  0  0  0  0  0  0  0
  -29.5873   -2.0665   -3.3834 Cl  0  0  0  0  0  0  0  0  0  0  0  0
  -28.7860   -1.1518   -5.8550 C   0  0  0  0  0  0  0  0  0  0  0  0
  -28.3945   -1.4259   -7.1883 C   0  0  0  0  0  0  0  0  0  0  0  0
  -28.8124    0.2891   -5.4167 C   0  0  0  0  0  0  0  0  0  0  0  0
  -28.0503    0.6160   -4.3403 F   0  0  0  0  0  0  0  0  0  0  0  0
  -28.4219    1.1402   -6.4099 F   0  0  0  0  0  0  0  0  0  0  0  0
  -30.0790    0.6868   -5.0850 F   0  0  0  0  0  0  0  0  0  0  0  0
  -25.2362   -0.9604  -16.3705 N   0  0  0  0  0  0  0  0  0  0  0  0
  -25.0099   -1.0919  -15.2432 C   0  0  0  0  0  0  0  0  0  0  0  0
  -22.3871   -0.5722  -13.9063 O   0  0  0  0  0  0  0  0  0  0  0  0
  -22.0901    0.7891  -13.9853 C   0  0  0  0  0  0  0  0  0  0  0  0
  -20.8142    1.1227  -14.3857 C   0  0  0  0  0  0  0  0  0  0  0  0
  -20.5613    2.4740  -14.5089 C   0  0  0  0  0  0  0  0  0  0  0  0
  -21.5032    3.4130  -14.3382 N   0  0  0  0  0  0  0  0  0  0  0  0
  -22.6898    2.9695  -13.9002 C   0  0  0  0  0  0  0  0  0  0  0  0
  -23.0324    1.6942  -13.6774 N   0  0  0  0  0  0  0  0  0  0  0  0
  -19.2842    2.9698  -14.8069 N   0  0  0  0  0  0  0  0  0  0  0  0
  -18.2495    2.1354  -15.1689 C   0  0  0  0  0  0  0  0  0  0  0  0
  -18.3488    0.9244  -15.3284 O   0  0  0  0  0  0  0  0  0  0  0  0
  -19.0476    3.8205  -14.3172 H   0  0  0  0  0  0  0  0  0  0  0  0
  -16.8973    2.7486  -15.3161 C   0  0  0  0  0  0  0  0  0  0  0  0
  -16.5194    3.5842  -16.5152 C   0  0  0  0  0  0  0  0  0  0  0  0
  -15.8392    2.2662  -16.2756 C   0  0  0  0  0  0  0  0  0  0  0  0
 24 25  3  0  0  0
 25  1  1  0  0  0
  1  2  1  0  0  0
  1  6  2  0  0  0
  2  3  2  0  0  0
  3  7  1  0  0  0
  3  4  1  0  0  0
  7  8  1  0  0  0
  7 11  1  0  0  0
  8  9  2  0  0  0
  8 10  1  0  0  0
 10 13  1  0  0  0
 10 12  1  0  0  0
 13 14  1  0  0  0
 13 19  2  0  0  0
 14 15  2  0  0  0
 15 16  1  0  0  0
 16 17  1  0  0  0
 16 18  2  0  0  0
 18 20  1  0  0  0
 18 19  1  0  0  0
 20 21  1  0  0  0
 20 22  1  0  0  0
 20 23  1  0  0  0
  4  5  2  0  0  0
  5  6  1  0  0  0
  6 26  1  0  0  0
 26 27  1  0  0  0
 27 28  1  0  0  0
 27 32  2  0  0  0
 28 29  2  0  0  0
 29 33  1  0  0  0
 29 30  1  0  0  0
 33 34  1  0  0  0
 33 36  1  0  0  0
 34 35  2  0  0  0
 34 37  1  0  0  0
 37 38  1  0  0  0
 37 39  1  0  0  0
 38 39  1  0  0  0
 30 31  2  0  0  0
 31 32  1  0  0  0
M  END
> <minimizedAffinity>
-11.48936

$$$$
