CHEMBL3944224


 33 36  0  0  0  0  0  0  0  0999 V2000
  -17.7512    2.1944  -15.6665 N   0  0  0  0  0  0  0  0  0  0  0  0
  -19.1783    1.8928  -15.4298 C   0  0  0  0  0  0  0  0  0  0  0  0
  -19.9538    3.0419  -15.3541 C   0  0  0  0  0  0  0  0  0  0  0  0
  -21.1535    3.0915  -14.7655 C   0  0  0  0  0  0  0  0  0  0  0  0
  -21.7221    1.9764  -14.2708 C   0  0  0  0  0  0  0  0  0  0  0  0
  -22.8005    2.1958  -13.5316 N   0  0  0  0  0  0  0  0  0  0  0  0
  -23.5355    1.2211  -13.0469 C   0  0  0  0  0  0  0  0  0  0  0  0
  -23.2974   -0.0958  -13.4391 C   0  0  0  0  0  0  0  0  0  0  0  0
  -22.0693   -0.3789  -14.0849 N   0  0  0  0  0  0  0  0  0  0  0  0
  -21.2099    0.6798  -14.4717 C   0  0  0  0  0  0  0  0  0  0  0  0
  -19.8444    0.6227  -15.0542 C   0  0  0  0  0  0  0  0  0  0  0  0
  -24.5921   -0.9358  -13.3321 C   0  0  0  0  0  0  0  0  0  0  0  0
  -25.1824   -1.2403  -12.0814 C   0  0  0  0  0  0  0  0  0  0  0  0
  -26.3988   -1.7597  -12.2334 N   0  0  0  0  0  0  0  0  0  0  0  0
  -26.6295   -1.8294  -13.5208 N   0  0  0  0  0  0  0  0  0  0  0  0
  -27.9554   -2.2329  -13.9974 C   0  0  0  0  0  0  0  0  0  0  0  0
  -25.5659   -1.3806  -14.2419 C   0  0  0  0  0  0  0  0  0  0  0  0
  -15.2952    0.1082  -13.6119 C   0  0  0  0  0  0  0  0  0  0  0  0
  -14.3276   -0.1532  -14.5967 C   0  0  0  0  0  0  0  0  0  0  0  0
  -14.4516    0.3670  -15.8799 C   0  0  0  0  0  0  0  0  0  0  0  0
  -15.5612    1.1640  -16.1818 C   0  0  0  0  0  0  0  0  0  0  0  0
  -16.5594    1.4822  -15.2304 C   0  0  0  0  0  0  0  0  0  0  0  0
  -16.4052    0.9494  -13.9233 C   0  0  0  0  0  0  0  0  0  0  0  0
  -15.6872   -1.7056  -12.0149 C   0  0  0  0  0  0  0  0  0  0  0  0
  -15.1970   -0.4538  -12.3714 O   0  0  0  0  0  0  0  0  0  0  0  0
  -13.4904    0.0785  -16.7998 O   0  0  0  0  0  0  0  0  0  0  0  0
  -12.7658    1.0069  -17.5215 C   0  0  0  0  0  0  0  0  0  0  0  0
  -17.5193    3.5101  -16.3617 C   0  0  0  0  0  0  0  0  0  0  0  0
  -16.2687    4.3667  -15.9590 C   0  0  0  0  0  0  0  0  0  0  0  0
  -15.1545    4.6802  -16.9458 C   0  0  0  0  0  0  0  0  0  0  0  0
  -15.1841    4.3070  -18.1021 O   0  0  0  0  0  0  0  0  0  0  0  0
  -14.0868    5.4023  -16.5344 O   0  0  0  0  0  0  0  0  0  0  0  0
  -14.0137    5.7478  -15.6333 H   0  0  0  0  0  0  0  0  0  0  0  0
 24 25  1  0  0  0
 25 18  1  0  0  0
 18 19  1  0  0  0
 18 23  2  0  0  0
 19 20  2  0  0  0
 20 26  1  0  0  0
 20 21  1  0  0  0
 26 27  1  0  0  0
 21 22  2  0  0  0
 22  1  1  0  0  0
 22 23  1  0  0  0
  1 28  1  0  0  0
  1  2  1  0  0  0
 28 29  1  0  0  0
 29 30  1  0  0  0
 30 31  2  0  0  0
 30 32  1  0  0  0
 32 33  1  0  0  0
  2  3  1  0  0  0
  2 11  2  0  0  0
  3  4  2  0  0  0
  4  5  1  0  0  0
  5  6  1  0  0  0
  5 10  2  0  0  0
  6  7  2  0  0  0
  7  8  1  0  0  0
  8 12  1  0  0  0
  8  9  2  0  0  0
 12 13  1  0  0  0
 12 17  2  0  0  0
 13 14  2  0  0  0
 14 15  1  0  0  0
 15 16  1  0  0  0
 15 17  1  0  0  0
  9 10  1  0  0  0
 10 11  1  0  0  0
M  END
> <minimizedAffinity>
-8.53653

$$$$
