CHEMBL445570


 32 35  0  0  0  0  0  0  0  0999 V2000
  -28.4774   -2.4996   -8.1038 C   0  0  0  0  0  0  0  0  0  0  0  0
  -27.9322   -2.5242   -6.8164 C   0  0  0  0  0  0  0  0  0  0  0  0
  -28.1982   -3.5766   -5.9393 C   0  0  0  0  0  0  0  0  0  0  0  0
  -29.0738   -4.6055   -6.3036 C   0  0  0  0  0  0  0  0  0  0  0  0
  -29.7502   -4.4875   -7.5192 C   0  0  0  0  0  0  0  0  0  0  0  0
  -29.4324   -3.4621   -8.4302 C   0  0  0  0  0  0  0  0  0  0  0  0
  -29.2113   -5.7707   -5.4058 C   0  0  0  0  0  0  0  0  0  0  0  0
  -29.5810   -5.5280   -4.1382 N   0  0  0  0  0  0  0  0  0  0  0  0
  -29.5906   -6.9306   -3.2746 S   0  0  0  0  0  0  0  0  0  0  0  0
  -29.1142   -7.9308   -4.5577 C   0  0  0  0  0  0  0  0  0  0  0  0
  -28.9563   -9.2557   -4.4100 N   0  0  0  0  0  0  0  0  0  0  0  0
  -28.5741   -9.8388   -5.5448 C   0  0  0  0  0  0  0  0  0  0  0  0
  -28.3319   -9.2439   -6.7212 N   0  0  0  0  0  0  0  0  0  0  0  0
  -28.4785   -7.9075   -6.8219 C   0  0  0  0  0  0  0  0  0  0  0  0
  -28.1504   -7.3840   -8.0668 N   0  0  0  0  0  0  0  0  0  0  0  0
  -28.9170   -7.1713   -5.7044 C   0  0  0  0  0  0  0  0  0  0  0  0
  -27.7016   -8.1023   -8.6266 H   0  0  0  0  0  0  0  0  0  0  0  0
  -27.6399   -6.5097   -8.0237 H   0  0  0  0  0  0  0  0  0  0  0  0
  -26.8761   -0.7538  -10.8928 N   0  0  0  0  0  0  0  0  0  0  0  0
  -27.2381   -1.8533  -10.1340 C   0  0  0  0  0  0  0  0  0  0  0  0
  -26.8486   -2.9947  -10.3623 O   0  0  0  0  0  0  0  0  0  0  0  0
  -28.0791   -1.5452   -9.0785 N   0  0  0  0  0  0  0  0  0  0  0  0
  -27.0184    0.1562  -10.4791 H   0  0  0  0  0  0  0  0  0  0  0  0
  -28.6553   -0.7219   -9.1806 H   0  0  0  0  0  0  0  0  0  0  0  0
  -23.7495   -0.4278  -12.8991 C   0  0  0  0  0  0  0  0  0  0  0  0
  -24.0881   -1.1465  -14.0546 C   0  0  0  0  0  0  0  0  0  0  0  0
  -25.3658   -1.6626  -14.2039 C   0  0  0  0  0  0  0  0  0  0  0  0
  -26.3061   -1.4846  -13.1903 C   0  0  0  0  0  0  0  0  0  0  0  0
  -25.9815   -0.8253  -11.9975 C   0  0  0  0  0  0  0  0  0  0  0  0
  -24.7051   -0.2597  -11.8791 C   0  0  0  0  0  0  0  0  0  0  0  0
  -21.8146    0.6581  -14.0466 C   0  0  0  0  0  0  0  0  0  0  0  0
  -22.3377    0.0755  -12.7419 C   0  0  0  0  0  0  0  0  0  0  0  0
 31 32  1  0  0  0
 32 25  1  0  0  0
 25 26  1  0  0  0
 25 30  2  0  0  0
 26 27  2  0  0  0
 27 28  1  0  0  0
 28 29  2  0  0  0
 29 19  1  0  0  0
 29 30  1  0  0  0
 19 20  1  0  0  0
 19 23  1  0  0  0
 20 21  2  0  0  0
 20 22  1  0  0  0
 22  1  1  0  0  0
 22 24  1  0  0  0
  1  2  1  0  0  0
  1  6  2  0  0  0
  2  3  2  0  0  0
  3  4  1  0  0  0
  4  7  1  0  0  0
  4  5  2  0  0  0
  7  8  2  0  0  0
  7 16  1  0  0  0
  8  9  1  0  0  0
  9 10  1  0  0  0
 10 11  1  0  0  0
 10 16  2  0  0  0
 11 12  2  0  0  0
 12 13  1  0  0  0
 13 14  2  0  0  0
 14 15  1  0  0  0
 14 16  1  0  0  0
 15 17  1  0  0  0
 15 18  1  0  0  0
  5  6  1  0  0  0
M  END
> <minimizedAffinity>
-9.05360

$$$$
