CHEMBL2005482


 46 52  0  0  0  0  0  0  0  0999 V2000
  -16.3129    3.4030  -16.0058 C   0  0  0  0  0  0  0  0  0  0  0  0
  -17.5610    3.9720  -15.7943 N   0  0  0  0  0  0  0  0  0  0  0  0
  -18.3048    2.9520  -15.5000 C   0  0  0  0  0  0  0  0  0  0  0  0
  -19.9837    2.7576  -15.0989 S   0  0  0  0  0  0  0  0  0  0  0  0
  -19.7015    1.0227  -14.9199 C   0  0  0  0  0  0  0  0  0  0  0  0
  -18.4258    0.6731  -15.1447 C   0  0  0  0  0  0  0  0  0  0  0  0
  -17.6424    1.7614  -15.4824 N   0  0  0  0  0  0  0  0  0  0  0  0
  -16.3258    2.0070  -15.8005 C   0  0  0  0  0  0  0  0  0  0  0  0
  -14.1265    5.7400  -18.0187 C   0  0  0  0  0  0  0  0  0  0  0  0
  -15.2137    4.9705  -17.5975 C   0  0  0  0  0  0  0  0  0  0  0  0
  -15.1794    4.2295  -16.4077 C   0  0  0  0  0  0  0  0  0  0  0  0
  -14.0476    4.3181  -15.5886 C   0  0  0  0  0  0  0  0  0  0  0  0
  -12.9496    5.0846  -15.9879 C   0  0  0  0  0  0  0  0  0  0  0  0
  -12.9821    5.7729  -17.2055 C   0  0  0  0  0  0  0  0  0  0  0  0
  -11.5927    6.7030  -17.6599 Cl  0  0  0  0  0  0  0  0  0  0  0  0
  -15.1204    8.4694  -18.6063 O   0  0  0  0  0  0  0  0  0  0  0  0
  -14.6764    7.7129  -19.4674 C   0  0  0  0  0  0  0  0  0  0  0  0
  -14.1377    6.4542  -19.2444 N   0  0  0  0  0  0  0  0  0  0  0  0
  -13.6435    5.9993  -20.0050 H   0  0  0  0  0  0  0  0  0  0  0  0
  -14.6634    8.1272  -20.9310 C   0  0  0  0  0  0  0  0  0  0  0  0
  -15.9186    8.8344  -21.3953 C   0  0  0  0  0  0  0  0  0  0  0  0
  -17.0971    8.0955  -21.5825 C   0  0  0  0  0  0  0  0  0  0  0  0
  -18.2884    8.7304  -21.9403 C   0  0  0  0  0  0  0  0  0  0  0  0
  -18.3185   10.1122  -22.1121 C   0  0  0  0  0  0  0  0  0  0  0  0
  -17.1561   10.8585  -21.9323 C   0  0  0  0  0  0  0  0  0  0  0  0
  -15.9654   10.2255  -21.5684 C   0  0  0  0  0  0  0  0  0  0  0  0
  -15.2650    1.0003  -15.8046 C   0  0  0  0  0  0  0  0  0  0  0  0
  -14.4114    0.7621  -16.8549 C   0  0  0  0  0  0  0  0  0  0  0  0
  -13.5017   -0.2521  -16.6666 C   0  0  0  0  0  0  0  0  0  0  0  0
  -13.3907   -0.9566  -15.5267 N   0  0  0  0  0  0  0  0  0  0  0  0
  -14.2448   -0.6418  -14.5464 C   0  0  0  0  0  0  0  0  0  0  0  0
  -15.1954    0.2950  -14.6683 N   0  0  0  0  0  0  0  0  0  0  0  0
  -14.0917   -1.3123  -13.3359 N   0  0  0  0  0  0  0  0  0  0  0  0
  -13.1481   -1.1994  -12.9957 H   0  0  0  0  0  0  0  0  0  0  0  0
  -14.7496   -2.4740  -12.9024 C   0  0  0  0  0  0  0  0  0  0  0  0
  -15.6479   -2.4665  -11.8327 C   0  0  0  0  0  0  0  0  0  0  0  0
  -16.2728   -3.6356  -11.4239 C   0  0  0  0  0  0  0  0  0  0  0  0
  -15.9967   -4.8339  -12.0805 C   0  0  0  0  0  0  0  0  0  0  0  0
  -15.0986   -4.8992  -13.1550 C   0  0  0  0  0  0  0  0  0  0  0  0
  -14.4854   -3.6952  -13.5433 C   0  0  0  0  0  0  0  0  0  0  0  0
  -14.8627   -6.0857  -13.8147 N   0  0  0  0  0  0  0  0  0  0  0  0
  -15.2154   -7.3951  -13.2515 C   0  0  0  0  0  0  0  0  0  0  0  0
  -14.0184   -8.3503  -13.4160 C   0  0  0  0  0  0  0  0  0  0  0  0
  -13.5773   -8.4357  -14.7820 O   0  0  0  0  0  0  0  0  0  0  0  0
  -13.1925   -7.1361  -15.2629 C   0  0  0  0  0  0  0  0  0  0  0  0
  -14.3637   -6.1463  -15.1966 C   0  0  0  0  0  0  0  0  0  0  0  0
 16 17  2  0  0  0
 17 20  1  0  0  0
 17 18  1  0  0  0
 20 21  1  0  0  0
 21 22  1  0  0  0
 21 26  2  0  0  0
 22 23  2  0  0  0
 23 24  1  0  0  0
 24 25  2  0  0  0
 25 26  1  0  0  0
 18  9  1  0  0  0
 18 19  1  0  0  0
  9 10  1  0  0  0
  9 14  2  0  0  0
 10 11  2  0  0  0
 11  1  1  0  0  0
 11 12  1  0  0  0
  1  2  1  0  0  0
  1  8  2  0  0  0
  2  3  2  0  0  0
  3  4  1  0  0  0
  3  7  1  0  0  0
  4  5  1  0  0  0
  5  6  2  0  0  0
  6  7  1  0  0  0
  7  8  1  0  0  0
  8 27  1  0  0  0
 27 28  1  0  0  0
 27 32  2  0  0  0
 28 29  2  0  0  0
 29 30  1  0  0  0
 30 31  2  0  0  0
 31 33  1  0  0  0
 31 32  1  0  0  0
 33 35  1  0  0  0
 33 34  1  0  0  0
 35 36  1  0  0  0
 35 40  2  0  0  0
 36 37  2  0  0  0
 37 38  1  0  0  0
 38 39  2  0  0  0
 39 41  1  0  0  0
 39 40  1  0  0  0
 41 42  1  0  0  0
 41 46  1  0  0  0
 42 43  1  0  0  0
 43 44  1  0  0  0
 44 45  1  0  0  0
 45 46  1  0  0  0
 12 13  2  0  0  0
 13 14  1  0  0  0
 14 15  1  0  0  0
M  END
> <minimizedAffinity>
-9.25461

$$$$
