CHEMBL1984363


 32 35  0  0  0  0  0  0  0  0999 V2000
  -21.4751    2.0499  -14.6538 C   0  0  0  0  0  0  0  0  0  0  0  0
  -21.2207    0.6798  -14.5582 C   0  0  0  0  0  0  0  0  0  0  0  0
  -22.1379   -0.1730  -13.9303 C   0  0  0  0  0  0  0  0  0  0  0  0
  -23.3049    0.3251  -13.3298 C   0  0  0  0  0  0  0  0  0  0  0  0
  -23.4472    1.7241  -13.3005 C   0  0  0  0  0  0  0  0  0  0  0  0
  -22.5847    2.5738  -13.9966 C   0  0  0  0  0  0  0  0  0  0  0  0
  -24.3273   -0.5563  -12.7177 C   0  0  0  0  0  0  0  0  0  0  0  0
  -24.2970   -0.8906  -11.3405 C   0  0  0  0  0  0  0  0  0  0  0  0
  -25.3221   -1.6125  -10.7262 C   0  0  0  0  0  0  0  0  0  0  0  0
  -26.4557   -1.9895  -11.4400 C   0  0  0  0  0  0  0  0  0  0  0  0
  -26.4666   -1.7044  -12.8064 C   0  0  0  0  0  0  0  0  0  0  0  0
  -27.4305   -1.9163  -13.7540 N   0  0  0  0  0  0  0  0  0  0  0  0
  -27.0420   -1.6515  -15.0060 N   0  0  0  0  0  0  0  0  0  0  0  0
  -25.8071   -1.1785  -14.8588 C   0  0  0  0  0  0  0  0  0  0  0  0
  -25.0538   -0.8611  -15.9215 N   0  0  0  0  0  0  0  0  0  0  0  0
  -25.4149   -1.0784  -13.4801 C   0  0  0  0  0  0  0  0  0  0  0  0
  -28.3732   -2.2588  -13.6093 H   0  0  0  0  0  0  0  0  0  0  0  0
  -25.4077   -1.0789  -16.8439 H   0  0  0  0  0  0  0  0  0  0  0  0
  -24.0437   -0.7851  -15.8557 H   0  0  0  0  0  0  0  0  0  0  0  0
  -20.6067    2.9512  -15.4994 C   0  0  0  0  0  0  0  0  0  0  0  0
  -18.2420    2.6465  -16.0286 N   0  0  0  0  0  0  0  0  0  0  0  0
  -19.1548    2.9805  -15.0363 C   0  0  0  0  0  0  0  0  0  0  0  0
  -18.8838    3.2611  -13.8709 O   0  0  0  0  0  0  0  0  0  0  0  0
  -18.5972    2.6193  -16.9763 H   0  0  0  0  0  0  0  0  0  0  0  0
  -13.6875    4.6483  -15.8044 C   0  0  0  0  0  0  0  0  0  0  0  0
  -14.6007    3.4616  -15.7810 C   0  0  0  0  0  0  0  0  0  0  0  0
  -15.9878    3.6300  -15.8866 C   0  0  0  0  0  0  0  0  0  0  0  0
  -16.8468    2.5291  -15.8919 C   0  0  0  0  0  0  0  0  0  0  0  0
  -16.3127    1.2421  -15.7483 C   0  0  0  0  0  0  0  0  0  0  0  0
  -14.9316    1.0645  -15.6447 C   0  0  0  0  0  0  0  0  0  0  0  0
  -14.0890    2.1729  -15.6696 C   0  0  0  0  0  0  0  0  0  0  0  0
  -12.7641    1.9801  -15.5857 F   0  0  0  0  0  0  0  0  0  0  0  0
 25 26  1  0  0  0
 26 27  1  0  0  0
 26 31  2  0  0  0
 27 28  2  0  0  0
 28 21  1  0  0  0
 28 29  1  0  0  0
 21 22  1  0  0  0
 21 24  1  0  0  0
 22 23  2  0  0  0
 22 20  1  0  0  0
 20  1  1  0  0  0
  1  2  1  0  0  0
  1  6  2  0  0  0
  2  3  2  0  0  0
  3  4  1  0  0  0
  4  7  1  0  0  0
  4  5  2  0  0  0
  7  8  1  0  0  0
  7 16  2  0  0  0
  8  9  2  0  0  0
  9 10  1  0  0  0
 10 11  2  0  0  0
 11 12  1  0  0  0
 11 16  1  0  0  0
 12 13  1  0  0  0
 12 17  1  0  0  0
 13 14  2  0  0  0
 14 15  1  0  0  0
 14 16  1  0  0  0
 15 18  1  0  0  0
 15 19  1  0  0  0
  5  6  1  0  0  0
 29 30  2  0  0  0
 30 31  1  0  0  0
 31 32  1  0  0  0
M  END
> <minimizedAffinity>
-9.76849

$$$$
