CHEMBL1097743


 30 33  0  0  0  0  0  0  0  0999 V2000
  -15.6480    0.3514  -14.9123 C   0  0  0  0  0  0  0  0  0  0  0  0
  -14.7556    1.3724  -15.0280 N   0  0  0  0  0  0  0  0  0  0  0  0
  -15.2031    2.6200  -15.2370 C   0  0  0  0  0  0  0  0  0  0  0  0
  -16.4752    3.0283  -15.3333 N   0  0  0  0  0  0  0  0  0  0  0  0
  -17.3274    1.9992  -15.2277 C   0  0  0  0  0  0  0  0  0  0  0  0
  -18.6845    2.1308  -15.2557 N   0  0  0  0  0  0  0  0  0  0  0  0
  -19.2842    0.8953  -15.1389 C   0  0  0  0  0  0  0  0  0  0  0  0
  -18.2606   -0.0323  -15.0031 C   0  0  0  0  0  0  0  0  0  0  0  0
  -17.0162    0.6623  -15.0434 C   0  0  0  0  0  0  0  0  0  0  0  0
  -19.1455    3.0230  -15.3476 H   0  0  0  0  0  0  0  0  0  0  0  0
  -15.1671   -0.9440  -14.6421 N   0  0  0  0  0  0  0  0  0  0  0  0
  -15.1227   -1.5108  -15.4816 H   0  0  0  0  0  0  0  0  0  0  0  0
  -16.1736   -3.8657  -12.5164 C   0  0  0  0  0  0  0  0  0  0  0  0
  -16.1644   -3.2617  -11.2540 C   0  0  0  0  0  0  0  0  0  0  0  0
  -15.8513   -1.9086  -11.1219 C   0  0  0  0  0  0  0  0  0  0  0  0
  -15.5322   -1.1488  -12.2508 C   0  0  0  0  0  0  0  0  0  0  0  0
  -15.5608   -1.7190  -13.5271 C   0  0  0  0  0  0  0  0  0  0  0  0
  -15.8896   -3.0783  -13.6447 C   0  0  0  0  0  0  0  0  0  0  0  0
  -15.4903   -6.1293  -12.1009 F   0  0  0  0  0  0  0  0  0  0  0  0
  -16.4384   -5.3399  -12.6814 C   0  0  0  0  0  0  0  0  0  0  0  0
  -16.4725   -5.7136  -13.9922 F   0  0  0  0  0  0  0  0  0  0  0  0
  -17.6277   -5.7346  -12.1498 F   0  0  0  0  0  0  0  0  0  0  0  0
  -20.7743    0.7090  -15.1239 C   0  0  0  0  0  0  0  0  0  0  0  0
  -21.4255    1.0560  -13.7808 C   0  0  0  0  0  0  0  0  0  0  0  0
  -22.5164    0.0904  -13.3931 C   0  0  0  0  0  0  0  0  0  0  0  0
  -23.5165   -0.2600  -14.3115 C   0  0  0  0  0  0  0  0  0  0  0  0
  -24.5119   -1.1722  -13.9582 C   0  0  0  0  0  0  0  0  0  0  0  0
  -24.5195   -1.7383  -12.6849 C   0  0  0  0  0  0  0  0  0  0  0  0
  -23.5362   -1.3879  -11.7615 C   0  0  0  0  0  0  0  0  0  0  0  0
  -22.5412   -0.4739  -12.1116 C   0  0  0  0  0  0  0  0  0  0  0  0
 19 20  1  0  0  0
 20 21  1  0  0  0
 20 22  1  0  0  0
 20 13  1  0  0  0
 13 14  1  0  0  0
 13 18  2  0  0  0
 14 15  2  0  0  0
 15 16  1  0  0  0
 16 17  2  0  0  0
 17 11  1  0  0  0
 17 18  1  0  0  0
 11  1  1  0  0  0
 11 12  1  0  0  0
  1  2  1  0  0  0
  1  9  2  0  0  0
  2  3  2  0  0  0
  3  4  1  0  0  0
  4  5  2  0  0  0
  5  6  1  0  0  0
  5  9  1  0  0  0
  6  7  1  0  0  0
  6 10  1  0  0  0
  7 23  1  0  0  0
  7  8  2  0  0  0
 23 24  1  0  0  0
 24 25  1  0  0  0
 25 26  1  0  0  0
 25 30  2  0  0  0
 26 27  2  0  0  0
 27 28  1  0  0  0
 28 29  2  0  0  0
 29 30  1  0  0  0
  8  9  1  0  0  0
M  END
> <minimizedAffinity>
-9.94552

$$$$
