CHEMBL2018751


 29 31  0  0  0  0  0  0  0  0999 V2000
  -28.0503   -2.1070   -9.9731 N   0  0  0  0  0  0  0  0  0  0  0  0
  -28.5547   -2.9506  -10.2227 H   0  0  0  0  0  0  0  0  0  0  0  0
  -28.0147   -1.9553   -8.5683 C   0  0  0  0  0  0  0  0  0  0  0  0
  -27.8278   -0.7170   -8.0752 N   0  0  0  0  0  0  0  0  0  0  0  0
  -27.8863   -0.5863   -6.7514 C   0  0  0  0  0  0  0  0  0  0  0  0
  -28.1364   -1.5683   -5.8818 N   0  0  0  0  0  0  0  0  0  0  0  0
  -28.3106   -2.7950   -6.3907 C   0  0  0  0  0  0  0  0  0  0  0  0
  -28.6309   -3.8456   -5.5457 C   0  0  0  0  0  0  0  0  0  0  0  0
  -28.8430   -5.1902   -5.9581 C   0  0  0  0  0  0  0  0  0  0  0  0
  -28.6969   -5.4864   -7.3117 C   0  0  0  0  0  0  0  0  0  0  0  0
  -28.3944   -4.4083   -8.1794 C   0  0  0  0  0  0  0  0  0  0  0  0
  -28.2187   -3.0727   -7.7430 C   0  0  0  0  0  0  0  0  0  0  0  0
  -29.1454   -5.8944   -4.8373 O   0  0  0  0  0  0  0  0  0  0  0  0
  -30.4328   -6.2207   -4.3908 C   0  0  0  0  0  0  0  0  0  0  0  0
  -28.7583   -6.6027   -8.0799 O   0  0  0  0  0  0  0  0  0  0  0  0
  -29.6249   -7.6929   -7.9126 C   0  0  0  0  0  0  0  0  0  0  0  0
  -24.7976   -1.2723  -12.5596 C   0  0  0  0  0  0  0  0  0  0  0  0
  -24.6264   -1.3363  -11.1709 C   0  0  0  0  0  0  0  0  0  0  0  0
  -25.7022   -1.6082  -10.3234 C   0  0  0  0  0  0  0  0  0  0  0  0
  -26.9841   -1.7893  -10.8367 C   0  0  0  0  0  0  0  0  0  0  0  0
  -27.1539   -1.7517  -12.2293 C   0  0  0  0  0  0  0  0  0  0  0  0
  -26.0808   -1.4794  -13.0818 C   0  0  0  0  0  0  0  0  0  0  0  0
  -26.3752   -1.4563  -14.7872 Cl  0  0  0  0  0  0  0  0  0  0  0  0
  -23.1742    0.2223  -13.6855 C   0  0  0  0  0  0  0  0  0  0  0  0
  -23.4760    1.2865  -13.1678 O   0  0  0  0  0  0  0  0  0  0  0  0
  -23.7189   -1.0038  -13.4339 N   0  0  0  0  0  0  0  0  0  0  0  0
  -23.2474   -1.7933  -13.8536 H   0  0  0  0  0  0  0  0  0  0  0  0
  -21.1601    1.0888  -14.4247 C   0  0  0  0  0  0  0  0  0  0  0  0
  -22.1796    0.1006  -14.6061 O   0  0  0  0  0  0  0  0  0  0  0  0
 28 29  1  0  0  0
 29 24  1  0  0  0
 24 25  2  0  0  0
 24 26  1  0  0  0
 26 17  1  0  0  0
 26 27  1  0  0  0
 17 18  1  0  0  0
 17 22  2  0  0  0
 18 19  2  0  0  0
 19 20  1  0  0  0
 20  1  1  0  0  0
 20 21  2  0  0  0
  1  3  1  0  0  0
  1  2  1  0  0  0
  3  4  1  0  0  0
  3 12  2  0  0  0
  4  5  2  0  0  0
  5  6  1  0  0  0
  6  7  2  0  0  0
  7  8  1  0  0  0
  7 12  1  0  0  0
  8  9  2  0  0  0
  9 13  1  0  0  0
  9 10  1  0  0  0
 13 14  1  0  0  0
 10 15  1  0  0  0
 10 11  2  0  0  0
 15 16  1  0  0  0
 11 12  1  0  0  0
 21 22  1  0  0  0
 22 23  1  0  0  0
M  END
> <minimizedAffinity>
-8.22861

$$$$
