CHEMBL191107


 32 35  0  0  0  0  0  0  0  0999 V2000
  -26.8644   11.6153  -13.8476 C   0  0  0  0  0  0  0  0  0  0  0  0
  -25.9462   11.9491  -12.8528 C   0  0  0  0  0  0  0  0  0  0  0  0
  -26.2692   12.4629  -11.6421 N   0  0  0  0  0  0  0  0  0  0  0  0
  -27.5887   12.6183  -11.3893 C   0  0  0  0  0  0  0  0  0  0  0  0
  -28.6161   12.2936  -12.2746 C   0  0  0  0  0  0  0  0  0  0  0  0
  -28.2177   11.8008  -13.5221 C   0  0  0  0  0  0  0  0  0  0  0  0
  -25.2182   11.4469  -17.0932 C   0  0  0  0  0  0  0  0  0  0  0  0
  -25.5698   10.1603  -17.5110 C   0  0  0  0  0  0  0  0  0  0  0  0
  -26.3172    9.3008  -16.7754 N   0  0  0  0  0  0  0  0  0  0  0  0
  -26.7331    9.7872  -15.5835 C   0  0  0  0  0  0  0  0  0  0  0  0
  -26.4308   11.0695  -15.1386 C   0  0  0  0  0  0  0  0  0  0  0  0
  -25.6766   11.8967  -15.9051 N   0  0  0  0  0  0  0  0  0  0  0  0
  -24.3960   12.2493  -17.9131 N   0  0  0  0  0  0  0  0  0  0  0  0
  -24.9248   12.7977  -18.5796 H   0  0  0  0  0  0  0  0  0  0  0  0
  -19.9171   10.0077  -16.8665 Cl  0  0  0  0  0  0  0  0  0  0  0  0
  -20.8960   11.0181  -17.8616 C   0  0  0  0  0  0  0  0  0  0  0  0
  -20.3366   11.6440  -18.9662 C   0  0  0  0  0  0  0  0  0  0  0  0
  -21.1361   12.4555  -19.7668 C   0  0  0  0  0  0  0  0  0  0  0  0
  -22.4797   12.6501  -19.4392 C   0  0  0  0  0  0  0  0  0  0  0  0
  -23.0522   12.0607  -18.3056 C   0  0  0  0  0  0  0  0  0  0  0  0
  -22.2414   11.2107  -17.5362 C   0  0  0  0  0  0  0  0  0  0  0  0
  -29.9400   12.3706  -11.8605 N   0  0  0  0  0  0  0  0  0  0  0  0
  -30.1795   13.2277  -11.3685 H   0  0  0  0  0  0  0  0  0  0  0  0
  -31.0258   11.7098  -12.5702 C   0  0  0  0  0  0  0  0  0  0  0  0
  -31.3782   10.3851  -11.8812 C   0  0  0  0  0  0  0  0  0  0  0  0
  -32.7731    9.9041  -12.2776 C   0  0  0  0  0  0  0  0  0  0  0  0
  -33.1839   10.3315  -13.6276 N   0  0  0  0  0  0  0  0  0  0  0  0
  -33.0518   11.7892  -13.8692 C   0  0  0  0  0  0  0  0  0  0  0  0
  -34.0391   12.6356  -13.0507 C   0  0  0  0  0  0  0  0  0  0  0  0
  -35.3941   12.2506  -13.3173 O   0  0  0  0  0  0  0  0  0  0  0  0
  -35.5978   10.8514  -13.0805 C   0  0  0  0  0  0  0  0  0  0  0  0
  -34.6039    9.9831  -13.8753 C   0  0  0  0  0  0  0  0  0  0  0  0
 15 16  1  0  0  0
 16 17  1  0  0  0
 16 21  2  0  0  0
 17 18  2  0  0  0
 18 19  1  0  0  0
 19 20  2  0  0  0
 20 13  1  0  0  0
 20 21  1  0  0  0
 13  7  1  0  0  0
 13 14  1  0  0  0
  7  8  1  0  0  0
  7 12  2  0  0  0
  8  9  2  0  0  0
  9 10  1  0  0  0
 10 11  2  0  0  0
 11  1  1  0  0  0
 11 12  1  0  0  0
  1  2  1  0  0  0
  1  6  2  0  0  0
  2  3  2  0  0  0
  3  4  1  0  0  0
  4  5  2  0  0  0
  5 22  1  0  0  0
  5  6  1  0  0  0
 22 24  1  0  0  0
 22 23  1  0  0  0
 24 25  1  0  0  0
 25 26  1  0  0  0
 26 27  1  0  0  0
 27 28  1  0  0  0
 27 32  1  0  0  0
 28 29  1  0  0  0
 29 30  1  0  0  0
 30 31  1  0  0  0
 31 32  1  0  0  0
M  END
> <minimizedAffinity>
-0.84210

$$$$
