CHEMBL2018762


 30 32  0  0  0  0  0  0  0  0999 V2000
  -28.0927   -4.1897   -4.8593 N   0  0  0  0  0  0  0  0  0  0  0  0
  -27.5695   -4.2597   -3.9876 H   0  0  0  0  0  0  0  0  0  0  0  0
  -29.2669   -4.9563   -4.7253 C   0  0  0  0  0  0  0  0  0  0  0  0
  -30.0907   -4.6578   -3.6931 N   0  0  0  0  0  0  0  0  0  0  0  0
  -31.2370   -5.2942   -3.6477 C   0  0  0  0  0  0  0  0  0  0  0  0
  -31.6778   -6.2300   -4.5076 N   0  0  0  0  0  0  0  0  0  0  0  0
  -30.8322   -6.5623   -5.4941 C   0  0  0  0  0  0  0  0  0  0  0  0
  -31.2242   -7.5102   -6.4439 C   0  0  0  0  0  0  0  0  0  0  0  0
  -30.4221   -7.9369   -7.5386 C   0  0  0  0  0  0  0  0  0  0  0  0
  -29.1529   -7.3697   -7.6681 C   0  0  0  0  0  0  0  0  0  0  0  0
  -28.7632   -6.4193   -6.6985 C   0  0  0  0  0  0  0  0  0  0  0  0
  -29.5886   -5.9862   -5.6370 C   0  0  0  0  0  0  0  0  0  0  0  0
  -31.1600   -8.7958   -8.2964 O   0  0  0  0  0  0  0  0  0  0  0  0
  -32.2623   -9.5201   -7.8091 C   0  0  0  0  0  0  0  0  0  0  0  0
  -28.1235   -7.4525   -8.5443 O   0  0  0  0  0  0  0  0  0  0  0  0
  -27.5800   -8.6118   -9.1145 C   0  0  0  0  0  0  0  0  0  0  0  0
  -28.2779   -1.2333   -7.1705 C   0  0  0  0  0  0  0  0  0  0  0  0
  -28.2226   -2.5517   -6.6758 C   0  0  0  0  0  0  0  0  0  0  0  0
  -28.0752   -2.8398   -5.3253 C   0  0  0  0  0  0  0  0  0  0  0  0
  -28.0099   -1.7627   -4.4409 C   0  0  0  0  0  0  0  0  0  0  0  0
  -28.1084   -0.4483   -4.8956 C   0  0  0  0  0  0  0  0  0  0  0  0
  -28.2690   -0.1609   -6.2549 C   0  0  0  0  0  0  0  0  0  0  0  0
  -28.5401    1.2692   -6.6304 C   0  0  0  0  0  0  0  0  0  0  0  0
  -27.6147   -1.6476   -9.5018 C   0  0  0  0  0  0  0  0  0  0  0  0
  -26.8157   -2.5490   -9.2978 O   0  0  0  0  0  0  0  0  0  0  0  0
  -28.3782   -0.9934   -8.5587 N   0  0  0  0  0  0  0  0  0  0  0  0
  -29.1372   -0.4381   -8.9270 H   0  0  0  0  0  0  0  0  0  0  0  0
  -27.8426   -1.1380  -10.7470 O   0  0  0  0  0  0  0  0  0  0  0  0
  -27.4366   -1.9944  -12.9543 C   0  0  0  0  0  0  0  0  0  0  0  0
  -26.7983   -1.5098  -11.6660 C   0  0  0  0  0  0  0  0  0  0  0  0
 29 30  1  0  0  0
 30 28  1  0  0  0
 28 24  1  0  0  0
 24 25  2  0  0  0
 24 26  1  0  0  0
 26 17  1  0  0  0
 26 27  1  0  0  0
 17 18  1  0  0  0
 17 22  2  0  0  0
 18 19  2  0  0  0
 19  1  1  0  0  0
 19 20  1  0  0  0
  1  3  1  0  0  0
  1  2  1  0  0  0
  3  4  1  0  0  0
  3 12  2  0  0  0
  4  5  2  0  0  0
  5  6  1  0  0  0
  6  7  2  0  0  0
  7  8  1  0  0  0
  7 12  1  0  0  0
  8  9  2  0  0  0
  9 13  1  0  0  0
  9 10  1  0  0  0
 13 14  1  0  0  0
 10 15  1  0  0  0
 10 11  2  0  0  0
 15 16  1  0  0  0
 11 12  1  0  0  0
 20 21  2  0  0  0
 21 22  1  0  0  0
 22 23  1  0  0  0
M  END
> <minimizedAffinity>
-8.17146

$$$$
