CHEMBL370600


 26 29  0  0  0  0  0  0  0  0999 V2000
  -30.1877   -3.8772   -8.3585 O   0  0  0  0  0  0  0  0  0  0  0  0
  -29.4114   -3.8839   -7.4030 C   0  0  0  0  0  0  0  0  0  0  0  0
  -29.0521   -5.0583   -6.7497 N   0  0  0  0  0  0  0  0  0  0  0  0
  -28.6317   -4.9653   -5.8331 H   0  0  0  0  0  0  0  0  0  0  0  0
  -29.4443   -6.3515   -7.1743 C   0  0  0  0  0  0  0  0  0  0  0  0
  -28.6375   -7.1328   -8.0331 C   0  0  0  0  0  0  0  0  0  0  0  0
  -29.0723   -8.3604   -8.5332 C   0  0  0  0  0  0  0  0  0  0  0  0
  -30.3145   -8.7927   -8.1453 C   0  0  0  0  0  0  0  0  0  0  0  0
  -31.0893   -8.0705   -7.2670 C   0  0  0  0  0  0  0  0  0  0  0  0
  -30.6755   -6.8581   -6.7434 C   0  0  0  0  0  0  0  0  0  0  0  0
  -32.2839   -8.6782   -7.0257 O   0  0  0  0  0  0  0  0  0  0  0  0
  -32.1982   -9.8116   -7.9187 C   0  0  0  0  0  0  0  0  0  0  0  0
  -30.9186   -9.9325   -8.5681 O   0  0  0  0  0  0  0  0  0  0  0  0
  -28.8689   -2.6359   -6.8880 C   0  0  0  0  0  0  0  0  0  0  0  0
  -29.3824   -1.9201   -5.4163 S   0  0  0  0  0  0  0  0  0  0  0  0
  -28.2859   -0.6290   -5.6709 C   0  0  0  0  0  0  0  0  0  0  0  0
  -27.5669   -0.6915   -6.7678 N   0  0  0  0  0  0  0  0  0  0  0  0
  -27.8833   -1.8447   -7.4751 C   0  0  0  0  0  0  0  0  0  0  0  0
  -27.1917   -2.1015   -8.7894 C   0  0  0  0  0  0  0  0  0  0  0  0
  -27.9015   -1.5126  -10.0080 C   0  0  0  0  0  0  0  0  0  0  0  0
  -27.0036   -1.5227  -11.2247 C   0  0  0  0  0  0  0  0  0  0  0  0
  -25.6406   -1.2398  -11.1081 C   0  0  0  0  0  0  0  0  0  0  0  0
  -24.8574   -1.2493  -12.2531 C   0  0  0  0  0  0  0  0  0  0  0  0
  -25.3329   -1.5103  -13.4893 N   0  0  0  0  0  0  0  0  0  0  0  0
  -26.6550   -1.7660  -13.5835 C   0  0  0  0  0  0  0  0  0  0  0  0
  -27.5198   -1.7795  -12.4984 C   0  0  0  0  0  0  0  0  0  0  0  0
  1  2  2  0  0  0
  2  3  1  0  0  0
  2 14  1  0  0  0
  3  5  1  0  0  0
  3  4  1  0  0  0
  5  6  1  0  0  0
  5 10  2  0  0  0
  6  7  2  0  0  0
  7  8  1  0  0  0
  8  9  2  0  0  0
  8 13  1  0  0  0
  9 10  1  0  0  0
  9 11  1  0  0  0
 11 12  1  0  0  0
 12 13  1  0  0  0
 14 15  1  0  0  0
 14 18  2  0  0  0
 15 16  1  0  0  0
 16 17  2  0  0  0
 17 18  1  0  0  0
 18 19  1  0  0  0
 19 20  1  0  0  0
 20 21  1  0  0  0
 21 22  1  0  0  0
 21 26  2  0  0  0
 22 23  2  0  0  0
 23 24  1  0  0  0
 24 25  2  0  0  0
 25 26  1  0  0  0
M  END
> <minimizedAffinity>
-8.06797

$$$$
