CHEMBL4753664


 33 36  0  0  0  0  0  0  0  0999 V2000
  -19.6196    2.3801  -14.7450 C   0  0  0  0  0  0  0  0  0  0  0  0
  -20.6435    3.1809  -14.2380 C   0  0  0  0  0  0  0  0  0  0  0  0
  -21.8984    2.6330  -13.9498 C   0  0  0  0  0  0  0  0  0  0  0  0
  -22.1552    1.2820  -14.1851 C   0  0  0  0  0  0  0  0  0  0  0  0
  -21.1705    0.5063  -14.7988 C   0  0  0  0  0  0  0  0  0  0  0  0
  -19.9210    1.0559  -15.0846 C   0  0  0  0  0  0  0  0  0  0  0  0
  -23.3483    0.6281  -13.8209 N   0  0  0  0  0  0  0  0  0  0  0  0
  -23.5056   -0.3382  -12.8455 C   0  0  0  0  0  0  0  0  0  0  0  0
  -22.6220   -0.7628  -12.1093 O   0  0  0  0  0  0  0  0  0  0  0  0
  -24.1568    0.8494  -14.3921 H   0  0  0  0  0  0  0  0  0  0  0  0
  -24.8760   -0.9064  -12.6829 C   0  0  0  0  0  0  0  0  0  0  0  0
  -25.4464   -0.8932  -11.3991 C   0  0  0  0  0  0  0  0  0  0  0  0
  -26.7421   -1.3703  -11.1910 C   0  0  0  0  0  0  0  0  0  0  0  0
  -27.4790   -1.8716  -12.2620 C   0  0  0  0  0  0  0  0  0  0  0  0
  -26.9154   -1.9110  -13.5367 C   0  0  0  0  0  0  0  0  0  0  0  0
  -25.6214   -1.4339  -13.7390 C   0  0  0  0  0  0  0  0  0  0  0  0
  -25.1169   -1.4973  -14.9819 F   0  0  0  0  0  0  0  0  0  0  0  0
  -18.3295    2.9119  -14.9438 N   0  0  0  0  0  0  0  0  0  0  0  0
  -18.2118    3.8280  -14.5248 H   0  0  0  0  0  0  0  0  0  0  0  0
  -13.8913    2.7320  -17.4635 C   0  0  0  0  0  0  0  0  0  0  0  0
  -13.8727    1.8034  -16.4044 C   0  0  0  0  0  0  0  0  0  0  0  0
  -14.9340    1.6341  -15.5322 C   0  0  0  0  0  0  0  0  0  0  0  0
  -14.8543    0.6671  -14.6127 N   0  0  0  0  0  0  0  0  0  0  0  0
  -15.9252    0.4921  -13.8366 C   0  0  0  0  0  0  0  0  0  0  0  0
  -17.0550    1.1943  -13.8960 N   0  0  0  0  0  0  0  0  0  0  0  0
  -17.1228    2.1734  -14.8191 C   0  0  0  0  0  0  0  0  0  0  0  0
  -16.0540    2.4522  -15.6826 C   0  0  0  0  0  0  0  0  0  0  0  0
  -16.0571    3.4388  -16.6955 C   0  0  0  0  0  0  0  0  0  0  0  0
  -14.9957    3.5788  -17.5986 C   0  0  0  0  0  0  0  0  0  0  0  0
  -12.9738    2.0710  -19.5405 C   0  0  0  0  0  0  0  0  0  0  0  0
  -12.8396    2.8322  -18.3375 O   0  0  0  0  0  0  0  0  0  0  0  0
  -15.2526    4.5539  -18.5180 O   0  0  0  0  0  0  0  0  0  0  0  0
  -14.7084    5.8542  -18.3771 C   0  0  0  0  0  0  0  0  0  0  0  0
 30 31  1  0  0  0
 31 20  1  0  0  0
 20 21  1  0  0  0
 20 29  2  0  0  0
 21 22  2  0  0  0
 22 23  1  0  0  0
 22 27  1  0  0  0
 23 24  2  0  0  0
 24 25  1  0  0  0
 25 26  2  0  0  0
 26 18  1  0  0  0
 26 27  1  0  0  0
 18  1  1  0  0  0
 18 19  1  0  0  0
  1  2  1  0  0  0
  1  6  2  0  0  0
  2  3  2  0  0  0
  3  4  1  0  0  0
  4  7  1  0  0  0
  4  5  2  0  0  0
  7  8  1  0  0  0
  7 10  1  0  0  0
  8  9  2  0  0  0
  8 11  1  0  0  0
 11 12  1  0  0  0
 11 16  2  0  0  0
 12 13  2  0  0  0
 13 14  1  0  0  0
 14 15  2  0  0  0
 15 16  1  0  0  0
 16 17  1  0  0  0
  5  6  1  0  0  0
 27 28  2  0  0  0
 28 29  1  0  0  0
 29 32  1  0  0  0
 32 33  1  0  0  0
M  END
> <minimizedAffinity>
-9.73269

$$$$
