CHEMBL204867


 22 24  0  0  0  0  0  0  0  0999 V2000
  -19.4772    2.2966  -14.8451 C   0  0  0  0  0  0  0  0  0  0  0  0
  -20.0080    1.0305  -14.7270 C   0  0  0  0  0  0  0  0  0  0  0  0
  -21.3426    0.8746  -14.4096 C   0  0  0  0  0  0  0  0  0  0  0  0
  -22.1199    1.9335  -14.1478 N   0  0  0  0  0  0  0  0  0  0  0  0
  -21.5228    3.1311  -14.2523 C   0  0  0  0  0  0  0  0  0  0  0  0
  -20.2408    3.3637  -14.5769 N   0  0  0  0  0  0  0  0  0  0  0  0
  -14.0534    3.3499  -15.6900 C   0  0  0  0  0  0  0  0  0  0  0  0
  -15.4149    2.9327  -16.0124 N   0  0  0  0  0  0  0  0  0  0  0  0
  -15.8333    1.7954  -15.1555 C   0  0  0  0  0  0  0  0  0  0  0  0
  -17.2890    1.3454  -15.4257 C   0  0  0  0  0  0  0  0  0  0  0  0
  -18.1913    2.4957  -15.3047 N   0  0  0  0  0  0  0  0  0  0  0  0
  -17.8157    3.6633  -16.1079 C   0  0  0  0  0  0  0  0  0  0  0  0
  -16.3545    4.0558  -15.8091 C   0  0  0  0  0  0  0  0  0  0  0  0
  -21.9467   -0.3885  -14.3423 N   0  0  0  0  0  0  0  0  0  0  0  0
  -21.2664   -1.1200  -14.5011 H   0  0  0  0  0  0  0  0  0  0  0  0
  -23.1009   -0.6844  -13.7023 C   0  0  0  0  0  0  0  0  0  0  0  0
  -24.2817   -0.8547  -14.2644 N   0  0  0  0  0  0  0  0  0  0  0  0
  -25.2488   -1.1214  -13.3216 C   0  0  0  0  0  0  0  0  0  0  0  0
  -24.7976   -1.1751  -12.0250 C   0  0  0  0  0  0  0  0  0  0  0  0
  -23.1179   -0.8609  -11.9828 S   0  0  0  0  0  0  0  0  0  0  0  0
  -25.6072   -1.4424  -10.8883 C   0  0  0  0  0  0  0  0  0  0  0  0
  -26.2504   -1.6579   -9.9471 N   0  0  0  0  0  0  0  0  0  0  0  0
  7  8  1  0  0  0
  8  9  1  0  0  0
  8 13  1  0  0  0
  9 10  1  0  0  0
 10 11  1  0  0  0
 11  1  1  0  0  0
 11 12  1  0  0  0
  1  2  1  0  0  0
  1  6  2  0  0  0
  2  3  2  0  0  0
  3 14  1  0  0  0
  3  4  1  0  0  0
 14 16  1  0  0  0
 14 15  1  0  0  0
 16 17  2  0  0  0
 16 20  1  0  0  0
 17 18  1  0  0  0
 18 19  2  0  0  0
 19 21  1  0  0  0
 19 20  1  0  0  0
 21 22  3  0  0  0
  4  5  2  0  0  0
  5  6  1  0  0  0
 12 13  1  0  0  0
M  END
> <minimizedAffinity>
-7.32228

$$$$
