CHEMBL3913137


 38 41  0  0  0  0  0  0  0  0999 V2000
  -24.5709   -1.3941  -12.9361 C   0  0  0  0  0  0  0  0  0  0  0  0
  -25.8512   -1.3410  -13.4977 C   0  0  0  0  0  0  0  0  0  0  0  0
  -26.9880   -1.5138  -12.6906 C   0  0  0  0  0  0  0  0  0  0  0  0
  -26.8591   -1.7241  -11.3125 C   0  0  0  0  0  0  0  0  0  0  0  0
  -25.5790   -1.8140  -10.7579 C   0  0  0  0  0  0  0  0  0  0  0  0
  -24.4546   -1.6459  -11.5686 C   0  0  0  0  0  0  0  0  0  0  0  0
  -23.2364   -1.6680  -11.0052 F   0  0  0  0  0  0  0  0  0  0  0  0
  -21.6411    0.0493  -14.5507 N   0  0  0  0  0  0  0  0  0  0  0  0
  -22.7233    0.0166  -13.6843 C   0  0  0  0  0  0  0  0  0  0  0  0
  -23.0538    0.9068  -12.9123 O   0  0  0  0  0  0  0  0  0  0  0  0
  -23.3894   -1.2019  -13.7094 N   0  0  0  0  0  0  0  0  0  0  0  0
  -21.4221   -0.8089  -15.0319 H   0  0  0  0  0  0  0  0  0  0  0  0
  -22.7850   -2.0121  -13.7539 H   0  0  0  0  0  0  0  0  0  0  0  0
  -18.3981    1.8650  -14.9543 C   0  0  0  0  0  0  0  0  0  0  0  0
  -18.8124    3.2022  -14.8863 C   0  0  0  0  0  0  0  0  0  0  0  0
  -20.1629    3.5084  -14.7897 C   0  0  0  0  0  0  0  0  0  0  0  0
  -21.1096    2.4901  -14.7344 C   0  0  0  0  0  0  0  0  0  0  0  0
  -22.3875    2.8801  -14.8011 F   0  0  0  0  0  0  0  0  0  0  0  0
  -20.7387    1.1367  -14.7076 C   0  0  0  0  0  0  0  0  0  0  0  0
  -19.3717    0.8372  -14.8559 C   0  0  0  0  0  0  0  0  0  0  0  0
  -16.3585    0.7092  -14.0205 C   0  0  0  0  0  0  0  0  0  0  0  0
  -16.9247    1.5602  -15.1472 C   0  0  0  0  0  0  0  0  0  0  0  0
  -16.1754    2.7025  -15.2075 F   0  0  0  0  0  0  0  0  0  0  0  0
  -16.6828    0.9125  -16.3240 F   0  0  0  0  0  0  0  0  0  0  0  0
  -28.0308   -1.8943  -10.5953 O   0  0  0  0  0  0  0  0  0  0  0  0
  -27.9957   -1.9127   -9.2124 C   0  0  0  0  0  0  0  0  0  0  0  0
  -27.6570   -0.7991   -8.4519 C   0  0  0  0  0  0  0  0  0  0  0  0
  -27.6051   -0.9513   -7.0866 C   0  0  0  0  0  0  0  0  0  0  0  0
  -27.9275   -2.0939   -6.4575 N   0  0  0  0  0  0  0  0  0  0  0  0
  -28.3423   -3.1525   -7.1736 C   0  0  0  0  0  0  0  0  0  0  0  0
  -28.3849   -3.0999   -8.5668 C   0  0  0  0  0  0  0  0  0  0  0  0
  -28.7477   -4.3211   -6.4848 N   0  0  0  0  0  0  0  0  0  0  0  0
  -29.9166   -4.3834   -5.7383 C   0  0  0  0  0  0  0  0  0  0  0  0
  -30.7097   -3.4731   -5.5379 O   0  0  0  0  0  0  0  0  0  0  0  0
  -28.1766   -5.1455   -6.5739 H   0  0  0  0  0  0  0  0  0  0  0  0
  -30.2842   -5.6908   -5.1116 C   0  0  0  0  0  0  0  0  0  0  0  0
  -31.1158   -5.9677   -3.8926 C   0  0  0  0  0  0  0  0  0  0  0  0
  -29.6209   -6.0813   -3.8094 C   0  0  0  0  0  0  0  0  0  0  0  0
 21 22  1  0  0  0
 22 23  1  0  0  0
 22 24  1  0  0  0
 22 14  1  0  0  0
 14 15  1  0  0  0
 14 20  2  0  0  0
 15 16  2  0  0  0
 16 17  1  0  0  0
 17 18  1  0  0  0
 17 19  2  0  0  0
 19  8  1  0  0  0
 19 20  1  0  0  0
  8  9  1  0  0  0
  8 12  1  0  0  0
  9 10  2  0  0  0
  9 11  1  0  0  0
 11  1  1  0  0  0
 11 13  1  0  0  0
  1  2  1  0  0  0
  1  6  2  0  0  0
  2  3  2  0  0  0
  3  4  1  0  0  0
  4 25  1  0  0  0
  4  5  2  0  0  0
 25 26  1  0  0  0
 26 27  1  0  0  0
 26 31  2  0  0  0
 27 28  2  0  0  0
 28 29  1  0  0  0
 29 30  2  0  0  0
 30 32  1  0  0  0
 30 31  1  0  0  0
 32 33  1  0  0  0
 32 35  1  0  0  0
 33 34  2  0  0  0
 33 36  1  0  0  0
 36 37  1  0  0  0
 36 38  1  0  0  0
 37 38  1  0  0  0
  5  6  1  0  0  0
  6  7  1  0  0  0
M  END
> <minimizedAffinity>
-10.95124

$$$$
