CHEMBL181636


 28 30  0  0  0  0  0  0  0  0999 V2000
  -12.6421    3.7302  -14.9927 C   0  0  0  0  0  0  0  0  0  0  0  0
  -12.4457    2.8943  -13.9149 C   0  0  0  0  0  0  0  0  0  0  0  0
  -13.4488    1.9927  -13.8475 N   0  0  0  0  0  0  0  0  0  0  0  0
  -13.4996    1.0586  -12.8889 N   0  0  0  0  0  0  0  0  0  0  0  0
  -14.4984    0.2529  -12.9945 C   0  0  0  0  0  0  0  0  0  0  0  0
  -15.4541    0.2864  -13.9600 N   0  0  0  0  0  0  0  0  0  0  0  0
  -15.4198    1.1926  -14.9012 C   0  0  0  0  0  0  0  0  0  0  0  0
  -14.3443    2.1782  -14.8739 C   0  0  0  0  0  0  0  0  0  0  0  0
  -13.9113    3.3035  -15.6265 C   0  0  0  0  0  0  0  0  0  0  0  0
  -14.5253    4.0223  -16.8689 C   0  0  0  0  0  0  0  0  0  0  0  0
  -13.7881    5.2850  -17.3383 C   0  0  0  0  0  0  0  0  0  0  0  0
  -14.5131    3.0779  -18.0979 C   0  0  0  0  0  0  0  0  0  0  0  0
  -15.9631    4.5176  -16.5818 C   0  0  0  0  0  0  0  0  0  0  0  0
  -11.6706    4.7939  -15.3071 C   0  0  0  0  0  0  0  0  0  0  0  0
  -10.8807    4.7811  -16.2382 O   0  0  0  0  0  0  0  0  0  0  0  0
  -11.8060    7.1266  -15.0042 C   0  0  0  0  0  0  0  0  0  0  0  0
  -11.7323    5.8294  -14.4100 O   0  0  0  0  0  0  0  0  0  0  0  0
  -16.4399    1.1563  -15.8275 N   0  0  0  0  0  0  0  0  0  0  0  0
  -16.1874    1.6555  -16.6713 H   0  0  0  0  0  0  0  0  0  0  0  0
  -17.8093    1.3586  -15.5133 C   0  0  0  0  0  0  0  0  0  0  0  0
  -18.6770    0.2596  -15.4669 C   0  0  0  0  0  0  0  0  0  0  0  0
  -20.0171    0.4128  -15.0901 C   0  0  0  0  0  0  0  0  0  0  0  0
  -20.5219    1.6662  -14.7188 C   0  0  0  0  0  0  0  0  0  0  0  0
  -21.9674    1.7999  -14.3374 C   0  0  0  0  0  0  0  0  0  0  0  0
  -19.6420    2.7526  -14.7214 C   0  0  0  0  0  0  0  0  0  0  0  0
  -20.0216    4.0123  -14.3491 O   0  0  0  0  0  0  0  0  0  0  0  0
  -18.3059    2.6018  -15.1027 C   0  0  0  0  0  0  0  0  0  0  0  0
  -20.9636    4.0129  -14.1215 H   0  0  0  0  0  0  0  0  0  0  0  0
 16 17  1  0  0  0
 17 14  1  0  0  0
 14 15  2  0  0  0
 14  1  1  0  0  0
  1  2  2  0  0  0
  1  9  1  0  0  0
  2  3  1  0  0  0
  3  4  1  0  0  0
  3  8  1  0  0  0
  4  5  2  0  0  0
  5  6  1  0  0  0
  6  7  2  0  0  0
  7 18  1  0  0  0
  7  8  1  0  0  0
 18 20  1  0  0  0
 18 19  1  0  0  0
 20 21  1  0  0  0
 20 27  2  0  0  0
 21 22  2  0  0  0
 22 23  1  0  0  0
 23 24  1  0  0  0
 23 25  2  0  0  0
 25 26  1  0  0  0
 25 27  1  0  0  0
 26 28  1  0  0  0
  8  9  2  0  0  0
  9 10  1  0  0  0
 10 11  1  0  0  0
 10 12  1  0  0  0
 10 13  1  0  0  0
M  END
> <minimizedAffinity>
-7.14077

$$$$
