CHEMBL3930406


 36 40  0  0  0  0  0  0  0  0999 V2000
  -28.0367   11.1997  -15.4350 C   0  0  0  0  0  0  0  0  0  0  0  0
  -26.8402   11.0345  -16.1359 C   0  0  0  0  0  0  0  0  0  0  0  0
  -25.5946   11.2953  -15.5208 C   0  0  0  0  0  0  0  0  0  0  0  0
  -24.3429   11.1203  -16.1199 C   0  0  0  0  0  0  0  0  0  0  0  0
  -23.1913   11.3079  -15.4451 N   0  0  0  0  0  0  0  0  0  0  0  0
  -23.2884   11.6926  -14.1725 C   0  0  0  0  0  0  0  0  0  0  0  0
  -24.4235   11.9191  -13.5123 N   0  0  0  0  0  0  0  0  0  0  0  0
  -25.5541   11.7158  -14.1892 C   0  0  0  0  0  0  0  0  0  0  0  0
  -26.7477   11.9460  -13.5360 C   0  0  0  0  0  0  0  0  0  0  0  0
  -27.9949   11.7609  -14.1534 C   0  0  0  0  0  0  0  0  0  0  0  0
  -29.1898   10.0843  -17.1743 C   0  0  0  0  0  0  0  0  0  0  0  0
  -29.2488   10.8466  -15.9612 O   0  0  0  0  0  0  0  0  0  0  0  0
  -24.2757   10.7237  -17.4824 N   0  0  0  0  0  0  0  0  0  0  0  0
  -25.2168   10.6748  -17.8609 H   0  0  0  0  0  0  0  0  0  0  0  0
  -23.3337   11.2559  -18.3875 C   0  0  0  0  0  0  0  0  0  0  0  0
  -23.7661   11.8591  -19.5765 C   0  0  0  0  0  0  0  0  0  0  0  0
  -22.8505   12.3002  -20.5300 C   0  0  0  0  0  0  0  0  0  0  0  0
  -21.4848   12.1501  -20.2977 C   0  0  0  0  0  0  0  0  0  0  0  0
  -20.4033   12.6552  -21.5446 Cl  0  0  0  0  0  0  0  0  0  0  0  0
  -21.0393   11.5917  -19.0941 C   0  0  0  0  0  0  0  0  0  0  0  0
  -19.3614   11.3859  -18.7365 Cl  0  0  0  0  0  0  0  0  0  0  0  0
  -21.9625   11.1562  -18.1360 C   0  0  0  0  0  0  0  0  0  0  0  0
  -29.1847   12.1149  -13.5443 O   0  0  0  0  0  0  0  0  0  0  0  0
  -29.6719   11.1023  -12.6458 C   0  0  0  0  0  0  0  0  0  0  0  0
  -31.0599   11.2891  -12.1355 C   0  0  0  0  0  0  0  0  0  0  0  0
  -31.5191   12.0453  -11.0798 C   0  0  0  0  0  0  0  0  0  0  0  0
  -33.2189   11.8616  -10.9219 S   0  0  0  0  0  0  0  0  0  0  0  0
  -33.2230   10.7869  -12.2623 C   0  0  0  0  0  0  0  0  0  0  0  0
  -32.0494   10.5886  -12.8172 N   0  0  0  0  0  0  0  0  0  0  0  0
  -34.4834   10.1150  -12.7335 C   0  0  0  0  0  0  0  0  0  0  0  0
  -34.5907    8.7070  -12.1272 C   0  0  0  0  0  0  0  0  0  0  0  0
  -35.8132    7.9833  -12.6801 C   0  0  0  0  0  0  0  0  0  0  0  0
  -35.8057    7.9675  -14.2097 C   0  0  0  0  0  0  0  0  0  0  0  0
  -35.7091    9.3271  -14.7625 N   0  0  0  0  0  0  0  0  0  0  0  0
  -35.7037    9.2785  -16.2261 C   0  0  0  0  0  0  0  0  0  0  0  0
  -34.4983   10.0165  -14.2720 C   0  0  0  0  0  0  0  0  0  0  0  0
 11 12  1  0  0  0
 12  1  1  0  0  0
  1  2  1  0  0  0
  1 10  2  0  0  0
  2  3  2  0  0  0
  3  4  1  0  0  0
  3  8  1  0  0  0
  4 13  1  0  0  0
  4  5  2  0  0  0
 13 15  1  0  0  0
 13 14  1  0  0  0
 15 16  1  0  0  0
 15 22  2  0  0  0
 16 17  2  0  0  0
 17 18  1  0  0  0
 18 19  1  0  0  0
 18 20  2  0  0  0
 20 21  1  0  0  0
 20 22  1  0  0  0
  5  6  1  0  0  0
  6  7  2  0  0  0
  7  8  1  0  0  0
  8  9  2  0  0  0
  9 10  1  0  0  0
 10 23  1  0  0  0
 23 24  1  0  0  0
 24 25  1  0  0  0
 25 26  2  0  0  0
 25 29  1  0  0  0
 26 27  1  0  0  0
 27 28  1  0  0  0
 28 30  1  0  0  0
 28 29  2  0  0  0
 30 31  1  0  0  0
 30 36  1  0  0  0
 31 32  1  0  0  0
 32 33  1  0  0  0
 33 34  1  0  0  0
 34 35  1  0  0  0
 34 36  1  0  0  0
M  END
> <minimizedAffinity>
-6.25805

$$$$
