CHEMBL381293


 32 35  0  0  0  0  0  0  0  0999 V2000
  -14.7798   -0.9366  -13.9077 C   0  0  0  0  0  0  0  0  0  0  0  0
  -14.7855   -0.2674  -12.7737 N   0  0  0  0  0  0  0  0  0  0  0  0
  -14.8438    1.0779  -13.0963 N   0  0  0  0  0  0  0  0  0  0  0  0
  -14.9277    1.1473  -14.4097 C   0  0  0  0  0  0  0  0  0  0  0  0
  -14.8802   -0.1005  -14.9860 O   0  0  0  0  0  0  0  0  0  0  0  0
  -15.0740    2.2797  -15.3258 C   0  0  0  0  0  0  0  0  0  0  0  0
  -13.9194    3.0100  -15.6580 C   0  0  0  0  0  0  0  0  0  0  0  0
  -13.8626    4.0818  -16.4839 N   0  0  0  0  0  0  0  0  0  0  0  0
  -15.0266    4.4780  -17.0122 C   0  0  0  0  0  0  0  0  0  0  0  0
  -16.2330    3.8453  -16.7523 C   0  0  0  0  0  0  0  0  0  0  0  0
  -16.2869    2.7042  -15.9237 C   0  0  0  0  0  0  0  0  0  0  0  0
  -17.6381    2.0232  -15.6739 C   0  0  0  0  0  0  0  0  0  0  0  0
  -18.7467    2.9704  -15.1529 C   0  0  0  0  0  0  0  0  0  0  0  0
  -20.1010    2.4035  -14.7975 C   0  0  0  0  0  0  0  0  0  0  0  0
  -20.2609    1.0073  -14.8050 C   0  0  0  0  0  0  0  0  0  0  0  0
  -21.4736    0.4550  -14.4247 C   0  0  0  0  0  0  0  0  0  0  0  0
  -22.5290    1.1887  -14.0258 N   0  0  0  0  0  0  0  0  0  0  0  0
  -22.3567    2.5296  -14.0084 C   0  0  0  0  0  0  0  0  0  0  0  0
  -21.1812    3.1756  -14.3745 C   0  0  0  0  0  0  0  0  0  0  0  0
  -14.7827   -2.2715  -14.1072 N   0  0  0  0  0  0  0  0  0  0  0  0
  -14.5696   -2.5650  -15.0542 H   0  0  0  0  0  0  0  0  0  0  0  0
  -15.7349   -4.2968  -11.1179 C   0  0  0  0  0  0  0  0  0  0  0  0
  -16.6747   -5.1688  -11.6564 C   0  0  0  0  0  0  0  0  0  0  0  0
  -16.9430   -5.1354  -13.0245 C   0  0  0  0  0  0  0  0  0  0  0  0
  -16.3091   -4.2039  -13.8521 C   0  0  0  0  0  0  0  0  0  0  0  0
  -15.3990   -3.2784  -13.3344 C   0  0  0  0  0  0  0  0  0  0  0  0
  -15.1400   -3.3340  -11.9512 C   0  0  0  0  0  0  0  0  0  0  0  0
  -15.3225   -4.2623   -9.8184 O   0  0  0  0  0  0  0  0  0  0  0  0
  -13.1579   -3.6377   -9.2439 F   0  0  0  0  0  0  0  0  0  0  0  0
  -13.9991   -4.6653   -9.4842 C   0  0  0  0  0  0  0  0  0  0  0  0
  -13.4913   -5.4323  -10.4720 F   0  0  0  0  0  0  0  0  0  0  0  0
  -14.0563   -5.4124   -8.3577 F   0  0  0  0  0  0  0  0  0  0  0  0
 29 30  1  0  0  0
 30 31  1  0  0  0
 30 32  1  0  0  0
 30 28  1  0  0  0
 28 22  1  0  0  0
 22 23  1  0  0  0
 22 27  2  0  0  0
 23 24  2  0  0  0
 24 25  1  0  0  0
 25 26  2  0  0  0
 26 20  1  0  0  0
 26 27  1  0  0  0
 20  1  1  0  0  0
 20 21  1  0  0  0
  1  2  2  0  0  0
  1  5  1  0  0  0
  2  3  1  0  0  0
  3  4  2  0  0  0
  4  6  1  0  0  0
  4  5  1  0  0  0
  6  7  1  0  0  0
  6 11  2  0  0  0
  7  8  2  0  0  0
  8  9  1  0  0  0
  9 10  2  0  0  0
 10 11  1  0  0  0
 11 12  1  0  0  0
 12 13  1  0  0  0
 13 14  1  0  0  0
 14 15  1  0  0  0
 14 19  2  0  0  0
 15 16  2  0  0  0
 16 17  1  0  0  0
 17 18  2  0  0  0
 18 19  1  0  0  0
M  END
> <minimizedAffinity>
-9.42245

$$$$
