CHEMBL3974664


 31 35  0  0  0  0  0  0  0  0999 V2000
  -14.5408   -3.0378  -12.7088 C   0  0  0  0  0  0  0  0  0  0  0  0
  -13.3230   -2.4791  -12.9355 C   0  0  0  0  0  0  0  0  0  0  0  0
  -13.2965   -1.2471  -13.4890 C   0  0  0  0  0  0  0  0  0  0  0  0
  -14.3850   -0.5229  -13.8293 C   0  0  0  0  0  0  0  0  0  0  0  0
  -14.0290    0.5971  -13.3234 N   0  0  0  0  0  0  0  0  0  0  0  0
  -13.4949    1.4610  -14.1053 C   0  0  0  0  0  0  0  0  0  0  0  0
  -14.3305    2.1892  -14.7590 C   0  0  0  0  0  0  0  0  0  0  0  0
  -15.5348    0.9199  -14.8266 N   0  0  0  0  0  0  0  0  0  0  0  0
  -15.6415   -0.6756  -13.9748 C   0  0  0  0  0  0  0  0  0  0  0  0
  -15.7284   -2.2072  -13.1552 C   0  0  0  0  0  0  0  0  0  0  0  0
  -12.9338    3.3949  -15.0599 C   0  0  0  0  0  0  0  0  0  0  0  0
  -11.4761    3.3908  -15.7838 C   0  0  0  0  0  0  0  0  0  0  0  0
  -10.8359    4.5892  -15.9909 N   0  0  0  0  0  0  0  0  0  0  0  0
  -11.7216    5.5206  -15.6099 N   0  0  0  0  0  0  0  0  0  0  0  0
  -11.4038    6.9838  -15.7534 C   0  0  0  0  0  0  0  0  0  0  0  0
  -12.9342    4.8534  -15.1400 C   0  0  0  0  0  0  0  0  0  0  0  0
  -14.4997   -4.3053  -11.9794 N   0  0  0  0  0  0  0  0  0  0  0  0
  -13.6611   -8.0052  -12.6476 C   0  0  0  0  0  0  0  0  0  0  0  0
  -13.8881   -8.0327  -13.9743 C   0  0  0  0  0  0  0  0  0  0  0  0
  -14.2682   -6.8872  -14.6662 C   0  0  0  0  0  0  0  0  0  0  0  0
  -14.3690   -5.6576  -14.0142 C   0  0  0  0  0  0  0  0  0  0  0  0
  -14.2774   -5.5785  -12.6297 C   0  0  0  0  0  0  0  0  0  0  0  0
  -13.9370   -6.8133  -12.0332 C   0  0  0  0  0  0  0  0  0  0  0  0
  -12.3421   -9.9142  -12.4372 C   0  0  0  0  0  0  0  0  0  0  0  0
  -13.3469   -9.0809  -11.8684 O   0  0  0  0  0  0  0  0  0  0  0  0
  -14.5818   -6.9108  -15.9948 O   0  0  0  0  0  0  0  0  0  0  0  0
  -13.6449   -7.6232  -16.8014 C   0  0  0  0  0  0  0  0  0  0  0  0
  -15.2595   -4.2809  -10.6846 C   0  0  0  0  0  0  0  0  0  0  0  0
  -14.4615   -4.0805   -9.4313 C   0  0  0  0  0  0  0  0  0  0  0  0
  -13.1257   -4.6285   -9.0055 C   0  0  0  0  0  0  0  0  0  0  0  0
  -14.2203   -5.4189   -8.7022 O   0  0  0  0  0  0  0  0  0  0  0  0
 24 25  1  0  0  0
 25 18  1  0  0  0
 18 19  1  0  0  0
 18 23  2  0  0  0
 19 20  2  0  0  0
 20 26  1  0  0  0
 20 21  1  0  0  0
 26 27  1  0  0  0
 21 22  2  0  0  0
 22 17  1  0  0  0
 22 23  1  0  0  0
 17 28  1  0  0  0
 17  1  1  0  0  0
 28 29  1  0  0  0
 29 30  1  0  0  0
 29 31  1  0  0  0
 30 31  1  0  0  0
  1  2  1  0  0  0
  1 10  2  0  0  0
  2  3  2  0  0  0
  3  4  1  0  0  0
  4  5  1  0  0  0
  4  9  2  0  0  0
  5  6  2  0  0  0
  6  7  1  0  0  0
  7 11  1  0  0  0
  7  8  2  0  0  0
 11 12  1  0  0  0
 11 16  2  0  0  0
 12 13  2  0  0  0
 13 14  1  0  0  0
 14 15  1  0  0  0
 14 16  1  0  0  0
  8  9  1  0  0  0
  9 10  1  0  0  0
M  END
> <minimizedAffinity>
-6.98868

$$$$
