CHEMBL1996587


 31 35  0  0  0  0  0  0  0  0999 V2000
  -28.0378   -9.4808   -7.2780 C   0  0  0  0  0  0  0  0  0  0  0  0
  -28.9316   -8.4620   -7.6610 C   0  0  0  0  0  0  0  0  0  0  0  0
  -29.5194   -8.7387   -8.8886 N   0  0  0  0  0  0  0  0  0  0  0  0
  -28.9743   -9.8614   -9.2650 C   0  0  0  0  0  0  0  0  0  0  0  0
  -28.0662  -10.3045   -8.3569 N   0  0  0  0  0  0  0  0  0  0  0  0
  -27.4809  -11.5769   -8.7273 C   0  0  0  0  0  0  0  0  0  0  0  0
  -27.8539  -11.6825  -10.2177 C   0  0  0  0  0  0  0  0  0  0  0  0
  -29.1035  -10.7888  -10.4046 C   0  0  0  0  0  0  0  0  0  0  0  0
  -24.0543  -10.6948   -4.8405 C   0  0  0  0  0  0  0  0  0  0  0  0
  -23.7690  -10.5925   -3.5535 N   0  0  0  0  0  0  0  0  0  0  0  0
  -24.8596  -10.0931   -2.8959 N   0  0  0  0  0  0  0  0  0  0  0  0
  -25.8013   -9.8954   -3.7909 C   0  0  0  0  0  0  0  0  0  0  0  0
  -27.1191   -9.4302   -3.6713 C   0  0  0  0  0  0  0  0  0  0  0  0
  -27.8772   -9.3738   -4.7679 C   0  0  0  0  0  0  0  0  0  0  0  0
  -27.2452   -9.6910   -6.0880 C   0  0  0  0  0  0  0  0  0  0  0  0
  -26.0297  -10.1325   -6.2289 N   0  0  0  0  0  0  0  0  0  0  0  0
  -25.3454  -10.2459   -5.0465 N   0  0  0  0  0  0  0  0  0  0  0  0
  -23.8625  -12.1985   -6.8086 C   0  0  0  0  0  0  0  0  0  0  0  0
  -23.1123  -11.1820   -5.9167 C   0  0  0  0  0  0  0  0  0  0  0  0
  -21.9132  -11.9077   -5.2751 C   0  0  0  0  0  0  0  0  0  0  0  0
  -22.5898  -10.0229   -6.7986 C   0  0  0  0  0  0  0  0  0  0  0  0
  -22.6857   -8.7445   -6.1786 O   0  0  0  0  0  0  0  0  0  0  0  0
  -23.6280   -8.5119   -6.1064 H   0  0  0  0  0  0  0  0  0  0  0  0
  -29.2533   -7.2534   -6.9139 C   0  0  0  0  0  0  0  0  0  0  0  0
  -30.1269   -7.2985   -5.8072 C   0  0  0  0  0  0  0  0  0  0  0  0
  -30.5527   -6.1294   -5.1849 C   0  0  0  0  0  0  0  0  0  0  0  0
  -30.0352   -4.9079   -5.5988 C   0  0  0  0  0  0  0  0  0  0  0  0
  -30.4281   -3.7875   -4.9813 F   0  0  0  0  0  0  0  0  0  0  0  0
  -29.1221   -4.8374   -6.6403 C   0  0  0  0  0  0  0  0  0  0  0  0
  -28.7500   -6.0072   -7.2999 C   0  0  0  0  0  0  0  0  0  0  0  0
  -27.9179   -5.8887   -8.3544 F   0  0  0  0  0  0  0  0  0  0  0  0
 18 19  1  0  0  0
 19 20  1  0  0  0
 19 21  1  0  0  0
 19  9  1  0  0  0
 21 22  1  0  0  0
 22 23  1  0  0  0
  9 10  2  0  0  0
  9 17  1  0  0  0
 10 11  1  0  0  0
 11 12  2  0  0  0
 12 13  1  0  0  0
 12 17  1  0  0  0
 13 14  2  0  0  0
 14 15  1  0  0  0
 15  1  1  0  0  0
 15 16  2  0  0  0
  1  2  2  0  0  0
  1  5  1  0  0  0
  2 24  1  0  0  0
  2  3  1  0  0  0
 24 25  1  0  0  0
 24 30  2  0  0  0
 25 26  2  0  0  0
 26 27  1  0  0  0
 27 28  1  0  0  0
 27 29  2  0  0  0
 29 30  1  0  0  0
 30 31  1  0  0  0
  3  4  2  0  0  0
  4  5  1  0  0  0
  4  8  1  0  0  0
  5  6  1  0  0  0
  6  7  1  0  0  0
  7  8  1  0  0  0
 16 17  1  0  0  0
M  END
> <minimizedAffinity>
-8.41017

$$$$
