CHEMBL3959805


 37 40  0  0  0  0  0  0  0  0999 V2000
  -25.5304   -1.7310  -12.3523 C   0  0  0  0  0  0  0  0  0  0  0  0
  -25.6348   -1.3185  -13.6821 C   0  0  0  0  0  0  0  0  0  0  0  0
  -24.5005   -0.9640  -14.4156 C   0  0  0  0  0  0  0  0  0  0  0  0
  -23.2476   -0.9321  -13.8050 C   0  0  0  0  0  0  0  0  0  0  0  0
  -23.1266   -1.3568  -12.4819 C   0  0  0  0  0  0  0  0  0  0  0  0
  -24.2630   -1.7478  -11.7568 C   0  0  0  0  0  0  0  0  0  0  0  0
  -25.8530   -1.6327   -9.4718 O   0  0  0  0  0  0  0  0  0  0  0  0
  -26.7369   -2.0700  -10.1975 C   0  0  0  0  0  0  0  0  0  0  0  0
  -26.6390   -2.1544  -11.5797 N   0  0  0  0  0  0  0  0  0  0  0  0
  -27.9732   -2.5060   -9.7411 N   0  0  0  0  0  0  0  0  0  0  0  0
  -27.4784   -2.3794  -12.0897 H   0  0  0  0  0  0  0  0  0  0  0  0
  -28.5833   -2.9387  -10.4170 H   0  0  0  0  0  0  0  0  0  0  0  0
  -28.4350   -2.4551   -8.4043 C   0  0  0  0  0  0  0  0  0  0  0  0
  -28.9268   -3.5606   -7.7119 C   0  0  0  0  0  0  0  0  0  0  0  0
  -29.3893   -3.4373   -6.4012 C   0  0  0  0  0  0  0  0  0  0  0  0
  -29.3452   -2.2088   -5.7403 C   0  0  0  0  0  0  0  0  0  0  0  0
  -29.9834   -2.1790   -4.1403 Cl  0  0  0  0  0  0  0  0  0  0  0  0
  -28.8091   -1.0911   -6.3853 C   0  0  0  0  0  0  0  0  0  0  0  0
  -28.3774   -1.2281   -7.7307 C   0  0  0  0  0  0  0  0  0  0  0  0
  -28.6195    0.2511   -5.7280 C   0  0  0  0  0  0  0  0  0  0  0  0
  -27.7937    0.2953   -4.6519 F   0  0  0  0  0  0  0  0  0  0  0  0
  -28.1132    1.1648   -6.6081 F   0  0  0  0  0  0  0  0  0  0  0  0
  -29.8029    0.7810   -5.3042 F   0  0  0  0  0  0  0  0  0  0  0  0
  -22.0939   -0.5301  -14.4469 O   0  0  0  0  0  0  0  0  0  0  0  0
  -21.7684    0.8127  -14.4652 C   0  0  0  0  0  0  0  0  0  0  0  0
  -22.5140    1.7933  -13.8175 C   0  0  0  0  0  0  0  0  0  0  0  0
  -22.1340    3.1045  -13.9795 C   0  0  0  0  0  0  0  0  0  0  0  0
  -21.0409    3.4735  -14.6692 N   0  0  0  0  0  0  0  0  0  0  0  0
  -20.2733    2.5258  -15.2291 C   0  0  0  0  0  0  0  0  0  0  0  0
  -20.5997    1.1755  -15.1448 C   0  0  0  0  0  0  0  0  0  0  0  0
  -19.1021    2.9055  -15.9061 N   0  0  0  0  0  0  0  0  0  0  0  0
  -17.8223    2.6481  -15.4319 C   0  0  0  0  0  0  0  0  0  0  0  0
  -17.5136    2.0752  -14.3953 O   0  0  0  0  0  0  0  0  0  0  0  0
  -19.2009    3.3835  -16.7841 H   0  0  0  0  0  0  0  0  0  0  0  0
  -16.7384    3.1190  -16.3436 C   0  0  0  0  0  0  0  0  0  0  0  0
  -15.3046    3.0705  -15.8645 C   0  0  0  0  0  0  0  0  0  0  0  0
  -15.9886    4.3970  -16.0181 C   0  0  0  0  0  0  0  0  0  0  0  0
  7  8  2  0  0  0
  8  9  1  0  0  0
  8 10  1  0  0  0
  9  1  1  0  0  0
  9 11  1  0  0  0
  1  2  1  0  0  0
  1  6  2  0  0  0
  2  3  2  0  0  0
  3  4  1  0  0  0
  4 24  1  0  0  0
  4  5  2  0  0  0
 24 25  1  0  0  0
 25 26  1  0  0  0
 25 30  2  0  0  0
 26 27  2  0  0  0
 27 28  1  0  0  0
 28 29  2  0  0  0
 29 31  1  0  0  0
 29 30  1  0  0  0
 31 32  1  0  0  0
 31 34  1  0  0  0
 32 33  2  0  0  0
 32 35  1  0  0  0
 35 36  1  0  0  0
 35 37  1  0  0  0
 36 37  1  0  0  0
  5  6  1  0  0  0
 10 13  1  0  0  0
 10 12  1  0  0  0
 13 14  1  0  0  0
 13 19  2  0  0  0
 14 15  2  0  0  0
 15 16  1  0  0  0
 16 17  1  0  0  0
 16 18  2  0  0  0
 18 20  1  0  0  0
 18 19  1  0  0  0
 20 21  1  0  0  0
 20 22  1  0  0  0
 20 23  1  0  0  0
M  END
> <minimizedAffinity>
-11.33314

$$$$
