CHEMBL4644695


 41 44  0  0  0  0  0  0  0  0999 V2000
  -27.1530   -2.0158   -9.1600 C   0  0  0  0  0  0  0  0  0  0  0  0
  -27.1657   -1.0631   -8.2393 N   0  0  0  0  0  0  0  0  0  0  0  0
  -27.9789   -1.3238   -7.2168 C   0  0  0  0  0  0  0  0  0  0  0  0
  -28.7317   -2.4066   -7.0846 N   0  0  0  0  0  0  0  0  0  0  0  0
  -28.6289   -3.2916   -8.0705 C   0  0  0  0  0  0  0  0  0  0  0  0
  -27.8951   -3.1082   -9.1563 N   0  0  0  0  0  0  0  0  0  0  0  0
  -26.2843   -1.9694  -10.2387 N   0  0  0  0  0  0  0  0  0  0  0  0
  -25.4371   -1.5084   -9.9373 H   0  0  0  0  0  0  0  0  0  0  0  0
  -25.6694   -1.5541  -12.6488 C   0  0  0  0  0  0  0  0  0  0  0  0
  -26.1779   -1.4453  -13.9618 C   0  0  0  0  0  0  0  0  0  0  0  0
  -27.5057   -1.7620  -14.2519 C   0  0  0  0  0  0  0  0  0  0  0  0
  -28.3501   -2.2078  -13.2409 C   0  0  0  0  0  0  0  0  0  0  0  0
  -27.8646   -2.2777  -11.9422 C   0  0  0  0  0  0  0  0  0  0  0  0
  -26.5415   -1.9050  -11.6052 C   0  0  0  0  0  0  0  0  0  0  0  0
  -23.9148   -1.2015  -12.5047 S   0  0  0  0  0  0  0  0  0  0  0  0
  -23.1297   -2.4105  -12.4309 O   0  0  0  0  0  0  0  0  0  0  0  0
  -23.7840   -0.1383  -11.5285 O   0  0  0  0  0  0  0  0  0  0  0  0
  -23.5124   -0.5097  -14.0061 N   0  0  0  0  0  0  0  0  0  0  0  0
  -23.2329   -1.1910  -14.7076 H   0  0  0  0  0  0  0  0  0  0  0  0
  -21.3790    0.6458  -14.4123 C   0  0  0  0  0  0  0  0  0  0  0  0
  -22.8326    0.7928  -13.9921 C   0  0  0  0  0  0  0  0  0  0  0  0
  -29.2433   -4.5322   -8.0458 N   0  0  0  0  0  0  0  0  0  0  0  0
  -29.7850   -4.6406   -8.8913 H   0  0  0  0  0  0  0  0  0  0  0  0
  -28.9562   -5.6904   -7.3333 C   0  0  0  0  0  0  0  0  0  0  0  0
  -28.7413   -5.6938   -5.9665 C   0  0  0  0  0  0  0  0  0  0  0  0
  -28.4128   -6.8729   -5.3031 C   0  0  0  0  0  0  0  0  0  0  0  0
  -28.3088   -8.1119   -5.9639 C   0  0  0  0  0  0  0  0  0  0  0  0
  -28.6754   -8.1178   -7.3318 C   0  0  0  0  0  0  0  0  0  0  0  0
  -28.9299   -6.9125   -8.0027 C   0  0  0  0  0  0  0  0  0  0  0  0
  -27.8980   -9.2391   -5.2545 N   0  0  0  0  0  0  0  0  0  0  0  0
  -28.9215  -10.2212   -4.8327 C   0  0  0  0  0  0  0  0  0  0  0  0
  -28.3944  -10.9595   -3.5746 C   0  0  0  0  0  0  0  0  0  0  0  0
  -27.1372  -11.6828   -3.8724 N   0  0  0  0  0  0  0  0  0  0  0  0
  -26.6470  -12.3883   -2.6951 C   0  0  0  0  0  0  0  0  0  0  0  0
  -26.1286  -10.7081   -4.3451 C   0  0  0  0  0  0  0  0  0  0  0  0
  -26.6102   -9.8929   -5.5638 C   0  0  0  0  0  0  0  0  0  0  0  0
  -28.8575   -9.1951   -8.1729 O   0  0  0  0  0  0  0  0  0  0  0  0
  -30.1058   -9.2902   -8.8425 C   0  0  0  0  0  0  0  0  0  0  0  0
  -31.1132  -10.1823   -8.1425 C   0  0  0  0  0  0  0  0  0  0  0  0
  -32.3822   -9.5621   -8.3774 O   0  0  0  0  0  0  0  0  0  0  0  0
  -32.7589   -8.6587   -7.3596 C   0  0  0  0  0  0  0  0  0  0  0  0
 20 21  1  0  0  0
 21 18  1  0  0  0
 18 15  1  0  0  0
 18 19  1  0  0  0
 15 16  2  0  0  0
 15 17  2  0  0  0
 15  9  1  0  0  0
  9 10  1  0  0  0
  9 14  2  0  0  0
 10 11  2  0  0  0
 11 12  1  0  0  0
 12 13  2  0  0  0
 13 14  1  0  0  0
 14  7  1  0  0  0
  7  1  1  0  0  0
  7  8  1  0  0  0
  1  2  1  0  0  0
  1  6  2  0  0  0
  2  3  2  0  0  0
  3  4  1  0  0  0
  4  5  2  0  0  0
  5 22  1  0  0  0
  5  6  1  0  0  0
 22 24  1  0  0  0
 22 23  1  0  0  0
 24 25  1  0  0  0
 24 29  2  0  0  0
 25 26  2  0  0  0
 26 27  1  0  0  0
 27 30  1  0  0  0
 27 28  2  0  0  0
 30 31  1  0  0  0
 30 36  1  0  0  0
 31 32  1  0  0  0
 32 33  1  0  0  0
 33 34  1  0  0  0
 33 35  1  0  0  0
 35 36  1  0  0  0
 28 37  1  0  0  0
 28 29  1  0  0  0
 37 38  1  0  0  0
 38 39  1  0  0  0
 39 40  1  0  0  0
 40 41  1  0  0  0
M  END
> <minimizedAffinity>
-8.48527

$$$$
