CHEMBL1289976


 22 25  0  0  0  0  0  0  0  0999 V2000
  -28.1920   -3.2518   -8.0284 C   0  0  0  0  0  0  0  0  0  0  0  0
  -28.4637   -4.6324   -8.0412 C   0  0  0  0  0  0  0  0  0  0  0  0
  -28.9041   -5.2855   -6.8983 C   0  0  0  0  0  0  0  0  0  0  0  0
  -29.2596   -4.6788   -5.7541 N   0  0  0  0  0  0  0  0  0  0  0  0
  -29.0986   -3.3456   -5.8142 C   0  0  0  0  0  0  0  0  0  0  0  0
  -29.8421   -2.4906   -5.0495 O   0  0  0  0  0  0  0  0  0  0  0  0
  -29.5587   -1.2392   -5.5008 C   0  0  0  0  0  0  0  0  0  0  0  0
  -30.3369   -0.0983   -5.3495 C   0  0  0  0  0  0  0  0  0  0  0  0
  -29.8140    1.0843   -5.8835 C   0  0  0  0  0  0  0  0  0  0  0  0
  -28.5157    1.1262   -6.3887 C   0  0  0  0  0  0  0  0  0  0  0  0
  -27.7792   -0.0465   -6.5740 C   0  0  0  0  0  0  0  0  0  0  0  0
  -28.4165   -1.2677   -6.2840 C   0  0  0  0  0  0  0  0  0  0  0  0
  -28.4211   -2.6043   -6.7869 C   0  0  0  0  0  0  0  0  0  0  0  0
  -28.0490   -2.6241   -9.2717 N   0  0  0  0  0  0  0  0  0  0  0  0
  -28.3140   -3.1803  -10.0759 H   0  0  0  0  0  0  0  0  0  0  0  0
  -26.9927   -1.6713   -9.5424 C   0  0  0  0  0  0  0  0  0  0  0  0
  -26.1269   -1.6878  -13.7585 C   0  0  0  0  0  0  0  0  0  0  0  0
  -25.0966   -1.4710  -12.8444 C   0  0  0  0  0  0  0  0  0  0  0  0
  -25.3677   -1.4708  -11.4770 C   0  0  0  0  0  0  0  0  0  0  0  0
  -26.6733   -1.6843  -11.0133 C   0  0  0  0  0  0  0  0  0  0  0  0
  -27.7000   -1.8974  -11.9439 C   0  0  0  0  0  0  0  0  0  0  0  0
  -27.4292   -1.8947  -13.3099 C   0  0  0  0  0  0  0  0  0  0  0  0
 17 18  1  0  0  0
 17 22  2  0  0  0
 18 19  2  0  0  0
 19 20  1  0  0  0
 20 16  1  0  0  0
 20 21  2  0  0  0
 16 14  1  0  0  0
 14  1  1  0  0  0
 14 15  1  0  0  0
  1  2  1  0  0  0
  1 13  2  0  0  0
  2  3  2  0  0  0
  3  4  1  0  0  0
  4  5  2  0  0  0
  5  6  1  0  0  0
  5 13  1  0  0  0
  6  7  1  0  0  0
  7  8  1  0  0  0
  7 12  2  0  0  0
  8  9  2  0  0  0
  9 10  1  0  0  0
 10 11  2  0  0  0
 11 12  1  0  0  0
 12 13  1  0  0  0
 21 22  1  0  0  0
M  END
> <minimizedAffinity>
-9.05803

$$$$
