CHEMBL3933714


 46 49  0  0  0  0  0  0  0  0999 V2000
  -24.9441   -9.7811   -5.2663 C   0  0  0  0  0  0  0  0  0  0  0  0
  -23.5847   -9.9695   -5.4138 C   0  0  0  0  0  0  0  0  0  0  0  0
  -23.2583  -10.8316   -6.4968 C   0  0  0  0  0  0  0  0  0  0  0  0
  -21.9889  -11.1665   -6.8682 N   0  0  0  0  0  0  0  0  0  0  0  0
  -21.8853  -11.9720   -7.9390 C   0  0  0  0  0  0  0  0  0  0  0  0
  -22.9507  -12.4623   -8.6675 C   0  0  0  0  0  0  0  0  0  0  0  0
  -24.2504  -12.0814   -8.3164 C   0  0  0  0  0  0  0  0  0  0  0  0
  -24.3888  -11.2809   -7.1724 C   0  0  0  0  0  0  0  0  0  0  0  0
  -25.8179  -10.6906   -6.4239 S   0  0  0  0  0  0  0  0  0  0  0  0
  -26.7679   -8.3169   -4.7303 N   0  0  0  0  0  0  0  0  0  0  0  0
  -25.6186   -8.9274   -4.2935 C   0  0  0  0  0  0  0  0  0  0  0  0
  -25.1996   -8.7557   -3.1516 O   0  0  0  0  0  0  0  0  0  0  0  0
  -27.1188   -8.5450   -5.6554 H   0  0  0  0  0  0  0  0  0  0  0  0
  -27.5819   -7.4460   -3.8819 C   0  0  0  0  0  0  0  0  0  0  0  0
  -28.8793   -8.2036   -3.5651 C   0  0  0  0  0  0  0  0  0  0  0  0
  -29.7052   -7.8562   -2.7288 O   0  0  0  0  0  0  0  0  0  0  0  0
  -28.9536   -9.3354   -4.3229 O   0  0  0  0  0  0  0  0  0  0  0  0
  -29.0204  -10.5552   -3.5861 C   0  0  0  0  0  0  0  0  0  0  0  0
  -27.8926   -6.1116   -4.5805 C   0  0  0  0  0  0  0  0  0  0  0  0
  -26.9737   -4.9763   -4.1161 C   0  0  0  0  0  0  0  0  0  0  0  0
  -27.7175   -3.6787   -3.8891 C   0  0  0  0  0  0  0  0  0  0  0  0
  -28.5994   -3.5099   -3.0723 O   0  0  0  0  0  0  0  0  0  0  0  0
  -27.9679   -1.5173   -4.7345 C   0  0  0  0  0  0  0  0  0  0  0  0
  -27.2145   -2.7298   -4.7298 O   0  0  0  0  0  0  0  0  0  0  0  0
  -25.3728  -12.4522   -9.0415 O   0  0  0  0  0  0  0  0  0  0  0  0
  -26.4618  -11.6050   -9.0294 C   0  0  0  0  0  0  0  0  0  0  0  0
  -27.6784  -11.9566   -8.4524 C   0  0  0  0  0  0  0  0  0  0  0  0
  -28.6889  -11.0147   -8.3167 C   0  0  0  0  0  0  0  0  0  0  0  0
  -28.5535   -9.7235   -8.8238 C   0  0  0  0  0  0  0  0  0  0  0  0
  -27.3710   -9.4162   -9.5154 C   0  0  0  0  0  0  0  0  0  0  0  0
  -27.2025   -8.1928  -10.0415 F   0  0  0  0  0  0  0  0  0  0  0  0
  -26.3253  -10.3471   -9.6196 C   0  0  0  0  0  0  0  0  0  0  0  0
  -29.5882   -8.7613   -8.6590 N   0  0  0  0  0  0  0  0  0  0  0  0
  -29.5061   -7.7259   -7.7428 C   0  0  0  0  0  0  0  0  0  0  0  0
  -28.5193   -7.4969   -7.0454 O   0  0  0  0  0  0  0  0  0  0  0  0
  -30.6578   -6.9517   -7.6654 N   0  0  0  0  0  0  0  0  0  0  0  0
  -30.2822   -8.6942   -9.3916 H   0  0  0  0  0  0  0  0  0  0  0  0
  -31.5081   -7.5024   -7.6734 H   0  0  0  0  0  0  0  0  0  0  0  0
  -30.6407   -5.8991   -6.7034 C   0  0  0  0  0  0  0  0  0  0  0  0
  -31.1717   -6.0988   -5.4201 C   0  0  0  0  0  0  0  0  0  0  0  0
  -31.3949   -5.0167   -4.5586 C   0  0  0  0  0  0  0  0  0  0  0  0
  -32.0379   -5.2318   -3.2194 C   0  0  0  0  0  0  0  0  0  0  0  0
  -31.0723   -3.7254   -4.9949 C   0  0  0  0  0  0  0  0  0  0  0  0
  -30.4790   -3.5300   -6.2446 C   0  0  0  0  0  0  0  0  0  0  0  0
  -30.2461   -4.6176   -7.0808 C   0  0  0  0  0  0  0  0  0  0  0  0
  -29.7326   -4.4080   -8.3047 F   0  0  0  0  0  0  0  0  0  0  0  0
 23 24  1  0  0  0
 24 21  1  0  0  0
 21 22  2  0  0  0
 21 20  1  0  0  0
 20 19  1  0  0  0
 14 15  1  0  0  0
 14 10  1  0  0  0
 14 19  1  0  0  0
 10 11  1  0  0  0
 10 13  1  0  0  0
 11 12  2  0  0  0
 11  1  1  0  0  0
  1  2  2  0  0  0
  1  9  1  0  0  0
  2  3  1  0  0  0
  3  4  1  0  0  0
  3  8  2  0  0  0
  4  5  2  0  0  0
  5  6  1  0  0  0
  6  7  2  0  0  0
  7 25  1  0  0  0
  7  8  1  0  0  0
 25 26  1  0  0  0
 26 27  1  0  0  0
 26 32  2  0  0  0
 27 28  2  0  0  0
 28 29  1  0  0  0
 29 33  1  0  0  0
 29 30  2  0  0  0
 33 34  1  0  0  0
 33 37  1  0  0  0
 34 35  2  0  0  0
 34 36  1  0  0  0
 36 39  1  0  0  0
 36 38  1  0  0  0
 39 40  1  0  0  0
 39 45  2  0  0  0
 40 41  2  0  0  0
 41 42  1  0  0  0
 41 43  1  0  0  0
 43 44  2  0  0  0
 44 45  1  0  0  0
 45 46  1  0  0  0
 30 31  1  0  0  0
 30 32  1  0  0  0
  8  9  1  0  0  0
 15 16  2  0  0  0
 15 17  1  0  0  0
 17 18  1  0  0  0
M  END
> <minimizedAffinity>
-7.21061

$$$$
