CHEMBL3918345


 46 48  0  0  0  0  0  0  0  0999 V2000
  -22.3335    1.1813  -14.1166 C   0  0  0  0  0  0  0  0  0  0  0  0
  -22.5619    2.5483  -14.1813 C   0  0  0  0  0  0  0  0  0  0  0  0
  -21.5840    3.4740  -14.3581 N   0  0  0  0  0  0  0  0  0  0  0  0
  -20.3182    3.0261  -14.4777 C   0  0  0  0  0  0  0  0  0  0  0  0
  -19.3677    4.0062  -14.7597 N   0  0  0  0  0  0  0  0  0  0  0  0
  -19.9874    1.6661  -14.4050 C   0  0  0  0  0  0  0  0  0  0  0  0
  -21.0128    0.7357  -14.2157 C   0  0  0  0  0  0  0  0  0  0  0  0
  -19.8178    4.9126  -14.6794 H   0  0  0  0  0  0  0  0  0  0  0  0
  -18.5334    3.9175  -14.1938 H   0  0  0  0  0  0  0  0  0  0  0  0
  -23.4827    0.2444  -13.9786 C   0  0  0  0  0  0  0  0  0  0  0  0
  -23.8458   -0.3405  -14.9917 O   0  0  0  0  0  0  0  0  0  0  0  0
  -24.7914   -1.3406  -12.4439 S   0  0  0  0  0  0  0  0  0  0  0  0
  -23.5798   -2.6414  -12.2849 C   0  0  0  0  0  0  0  0  0  0  0  0
  -25.8614   -1.8501  -13.2793 O   0  0  0  0  0  0  0  0  0  0  0  0
  -24.0398   -0.0202  -12.7119 N   0  0  0  0  0  0  0  0  0  0  0  0
  -25.4456   -1.2407  -10.7786 C   0  0  0  0  0  0  0  0  0  0  0  0
  -26.8532   -1.8279  -10.6802 C   0  0  0  0  0  0  0  0  0  0  0  0
  -27.4616   -1.5872   -9.2971 C   0  0  0  0  0  0  0  0  0  0  0  0
  -27.9797   -2.8795   -8.6609 C   0  0  0  0  0  0  0  0  0  0  0  0
  -28.2494   -2.6997   -7.1834 C   0  0  0  0  0  0  0  0  0  0  0  0
  -29.1038   -3.2979   -6.5439 O   0  0  0  0  0  0  0  0  0  0  0  0
  -27.3443   -1.7622   -5.2371 C   0  0  0  0  0  0  0  0  0  0  0  0
  -27.3949   -1.7713   -6.6660 O   0  0  0  0  0  0  0  0  0  0  0  0
  -18.6255    1.2247  -14.5016 C   0  0  0  0  0  0  0  0  0  0  0  0
  -17.4762    0.8729  -14.5382 C   0  0  0  0  0  0  0  0  0  0  0  0
  -16.1109    0.4407  -14.5668 C   0  0  0  0  0  0  0  0  0  0  0  0
  -15.1511    1.2478  -15.1762 C   0  0  0  0  0  0  0  0  0  0  0  0
  -13.8278    0.8233  -15.2350 C   0  0  0  0  0  0  0  0  0  0  0  0
  -13.4602   -0.4047  -14.6803 C   0  0  0  0  0  0  0  0  0  0  0  0
  -14.4034   -1.2192  -14.0499 C   0  0  0  0  0  0  0  0  0  0  0  0
  -15.7386   -0.7890  -14.0019 C   0  0  0  0  0  0  0  0  0  0  0  0
  -14.0774   -2.4700  -13.4735 N   0  0  0  0  0  0  0  0  0  0  0  0
  -14.3715   -2.8819  -12.1826 C   0  0  0  0  0  0  0  0  0  0  0  0
  -15.0083   -2.2501  -11.3447 O   0  0  0  0  0  0  0  0  0  0  0  0
  -13.6284   -3.1412  -14.0878 H   0  0  0  0  0  0  0  0  0  0  0  0
  -13.8697   -4.2180  -11.7682 C   0  0  0  0  0  0  0  0  0  0  0  0
  -14.2780   -5.3471  -12.5042 C   0  0  0  0  0  0  0  0  0  0  0  0
  -13.8074   -6.6307  -12.1757 C   0  0  0  0  0  0  0  0  0  0  0  0
  -12.8966   -6.7638  -11.1146 C   0  0  0  0  0  0  0  0  0  0  0  0
  -12.4870   -5.6454  -10.3856 C   0  0  0  0  0  0  0  0  0  0  0  0
  -12.9827   -4.3843  -10.7084 C   0  0  0  0  0  0  0  0  0  0  0  0
  -12.5780   -3.3352   -9.9764 F   0  0  0  0  0  0  0  0  0  0  0  0
  -14.2602   -7.8589  -12.9333 C   0  0  0  0  0  0  0  0  0  0  0  0
  -15.5233   -7.7653  -13.4293 F   0  0  0  0  0  0  0  0  0  0  0  0
  -13.4558   -8.1384  -13.9950 F   0  0  0  0  0  0  0  0  0  0  0  0
  -14.2472   -8.9746  -12.1517 F   0  0  0  0  0  0  0  0  0  0  0  0
 22 23  1  0  0  0
 23 20  1  0  0  0
 20 21  2  0  0  0
 20 19  1  0  0  0
 19 18  1  0  0  0
 18 17  1  0  0  0
 17 16  1  0  0  0
 16 12  1  0  0  0
 12 13  1  0  0  0
 12 14  2  0  0  0
 12 15  2  0  0  0
 15 10  1  0  0  0
 10 11  2  0  0  0
 10  1  1  0  0  0
  1  2  1  0  0  0
  1  7  2  0  0  0
  2  3  2  0  0  0
  3  4  1  0  0  0
  4  5  1  0  0  0
  4  6  2  0  0  0
  5  8  1  0  0  0
  5  9  1  0  0  0
  6 24  1  0  0  0
  6  7  1  0  0  0
 24 25  3  0  0  0
 25 26  1  0  0  0
 26 27  1  0  0  0
 26 31  2  0  0  0
 27 28  2  0  0  0
 28 29  1  0  0  0
 29 30  2  0  0  0
 30 32  1  0  0  0
 30 31  1  0  0  0
 32 33  1  0  0  0
 32 35  1  0  0  0
 33 34  2  0  0  0
 33 36  1  0  0  0
 36 37  1  0  0  0
 36 41  2  0  0  0
 37 38  2  0  0  0
 38 43  1  0  0  0
 38 39  1  0  0  0
 43 44  1  0  0  0
 43 45  1  0  0  0
 43 46  1  0  0  0
 39 40  2  0  0  0
 40 41  1  0  0  0
 41 42  1  0  0  0
M  END
> <minimizedAffinity>
-9.88621

$$$$
