CHEMBL224834


 34 39  0  0  0  0  0  0  0  0999 V2000
  -14.8502   -6.7996  -13.9419 C   0  0  0  0  0  0  0  0  0  0  0  0
  -14.3700   -7.9201  -13.3533 N   0  0  0  0  0  0  0  0  0  0  0  0
  -14.3969   -7.5658  -12.0475 N   0  0  0  0  0  0  0  0  0  0  0  0
  -15.1332   -6.4112  -11.8518 C   0  0  0  0  0  0  0  0  0  0  0  0
  -15.9064   -6.4304  -13.0456 C   0  0  0  0  0  0  0  0  0  0  0  0
  -16.9291   -5.3391  -12.9381 C   0  0  0  0  0  0  0  0  0  0  0  0
  -15.9624   -4.3124  -12.3951 C   0  0  0  0  0  0  0  0  0  0  0  0
  -15.8809   -3.0682  -12.9887 C   0  0  0  0  0  0  0  0  0  0  0  0
  -14.6297   -2.4692  -13.0350 C   0  0  0  0  0  0  0  0  0  0  0  0
  -13.5745   -3.0052  -12.2440 C   0  0  0  0  0  0  0  0  0  0  0  0
  -13.7031   -4.2377  -11.5464 C   0  0  0  0  0  0  0  0  0  0  0  0
  -14.8924   -4.9321  -11.6762 C   0  0  0  0  0  0  0  0  0  0  0  0
  -14.3124   -8.3153  -11.3800 H   0  0  0  0  0  0  0  0  0  0  0  0
  -13.0025   -4.1500  -15.9735 C   0  0  0  0  0  0  0  0  0  0  0  0
  -14.0413   -4.9677  -15.6000 C   0  0  0  0  0  0  0  0  0  0  0  0
  -13.7186   -5.9309  -14.5413 C   0  0  0  0  0  0  0  0  0  0  0  0
  -12.3688   -5.8881  -14.2518 C   0  0  0  0  0  0  0  0  0  0  0  0
  -11.5619   -4.6704  -15.1987 S   0  0  0  0  0  0  0  0  0  0  0  0
  -12.9745   -1.9863  -17.6494 C   0  0  0  0  0  0  0  0  0  0  0  0
  -13.0916   -3.0754  -16.9421 C   0  0  0  0  0  0  0  0  0  0  0  0
  -12.8380   -0.7166  -18.4739 C   0  0  0  0  0  0  0  0  0  0  0  0
  -14.0877   -0.0457  -18.5310 O   0  0  0  0  0  0  0  0  0  0  0  0
  -14.2361    0.9709  -17.6263 C   0  0  0  0  0  0  0  0  0  0  0  0
  -15.3572    1.1939  -16.8255 C   0  0  0  0  0  0  0  0  0  0  0  0
  -15.3916    2.2748  -15.9391 C   0  0  0  0  0  0  0  0  0  0  0  0
  -14.2969    3.1294  -15.8374 C   0  0  0  0  0  0  0  0  0  0  0  0
  -13.1743    2.9072  -16.6345 C   0  0  0  0  0  0  0  0  0  0  0  0
  -13.1343    1.8321  -17.5239 C   0  0  0  0  0  0  0  0  0  0  0  0
  -14.3824   -1.4985  -14.1758 C   0  0  0  0  0  0  0  0  0  0  0  0
  -13.7166   -0.2557  -13.8470 N   0  0  0  0  0  0  0  0  0  0  0  0
  -12.4211    0.0601  -14.1798 C   0  0  0  0  0  0  0  0  0  0  0  0
  -12.1290    1.1893  -13.4423 C   0  0  0  0  0  0  0  0  0  0  0  0
  -13.2269    1.5949  -12.7273 N   0  0  0  0  0  0  0  0  0  0  0  0
  -14.1649    0.7150  -12.9994 C   0  0  0  0  0  0  0  0  0  0  0  0
 19 20  3  0  0  0
 19 21  1  0  0  0
 20 14  1  0  0  0
 14 15  2  0  0  0
 14 18  1  0  0  0
 15 16  1  0  0  0
 16  1  1  0  0  0
 16 17  2  0  0  0
  1  2  2  0  0  0
  1  5  1  0  0  0
  2  3  1  0  0  0
  3  4  1  0  0  0
  3 13  1  0  0  0
  4  5  2  0  0  0
  4 12  1  0  0  0
  5  6  1  0  0  0
  6  7  1  0  0  0
  7  8  1  0  0  0
  7 12  2  0  0  0
  8  9  2  0  0  0
  9 29  1  0  0  0
  9 10  1  0  0  0
 29 30  1  0  0  0
 30 31  1  0  0  0
 30 34  1  0  0  0
 31 32  2  0  0  0
 32 33  1  0  0  0
 33 34  2  0  0  0
 10 11  2  0  0  0
 11 12  1  0  0  0
 17 18  1  0  0  0
 21 22  1  0  0  0
 22 23  1  0  0  0
 23 24  1  0  0  0
 23 28  2  0  0  0
 24 25  2  0  0  0
 25 26  1  0  0  0
 26 27  2  0  0  0
 27 28  1  0  0  0
M  END
> <minimizedAffinity>
-6.38625

$$$$
