CHEMBL3946208


 37 40  0  0  0  0  0  0  0  0999 V2000
  -27.0575   -1.7234  -14.3269 C   0  0  0  0  0  0  0  0  0  0  0  0
  -26.9030   -1.6060  -12.8348 C   0  0  0  0  0  0  0  0  0  0  0  0
  -28.0899   -1.6566  -12.0730 C   0  0  0  0  0  0  0  0  0  0  0  0
  -28.0627   -1.6096  -10.6831 C   0  0  0  0  0  0  0  0  0  0  0  0
  -26.8429   -1.6000  -10.0200 C   0  0  0  0  0  0  0  0  0  0  0  0
  -25.6614   -1.4958  -10.7603 C   0  0  0  0  0  0  0  0  0  0  0  0
  -25.6580   -1.4873  -12.1714 C   0  0  0  0  0  0  0  0  0  0  0  0
  -24.4486   -1.3348  -12.9182 N   0  0  0  0  0  0  0  0  0  0  0  0
  -23.6715   -0.1801  -12.9943 C   0  0  0  0  0  0  0  0  0  0  0  0
  -23.8253    0.8228  -12.3067 O   0  0  0  0  0  0  0  0  0  0  0  0
  -22.7075   -0.2493  -13.9995 N   0  0  0  0  0  0  0  0  0  0  0  0
  -24.0757   -2.1608  -13.3626 H   0  0  0  0  0  0  0  0  0  0  0  0
  -22.9872   -0.7888  -14.8054 H   0  0  0  0  0  0  0  0  0  0  0  0
  -21.8524    0.8589  -14.2603 C   0  0  0  0  0  0  0  0  0  0  0  0
  -22.3815    2.1504  -14.1827 C   0  0  0  0  0  0  0  0  0  0  0  0
  -21.5525    3.2648  -14.3439 C   0  0  0  0  0  0  0  0  0  0  0  0
  -20.2016    3.0988  -14.6436 C   0  0  0  0  0  0  0  0  0  0  0  0
  -19.6577    1.8132  -14.7835 C   0  0  0  0  0  0  0  0  0  0  0  0
  -20.4939    0.6980  -14.5717 C   0  0  0  0  0  0  0  0  0  0  0  0
  -18.2067    1.6287  -15.1605 C   0  0  0  0  0  0  0  0  0  0  0  0
  -17.3416    1.9666  -14.1596 F   0  0  0  0  0  0  0  0  0  0  0  0
  -17.8964    0.3474  -15.4957 F   0  0  0  0  0  0  0  0  0  0  0  0
  -17.8436    2.3959  -16.2266 F   0  0  0  0  0  0  0  0  0  0  0  0
  -26.7168   -1.6439   -8.6431 O   0  0  0  0  0  0  0  0  0  0  0  0
  -27.7826   -2.0943   -7.8867 C   0  0  0  0  0  0  0  0  0  0  0  0
  -28.3463   -1.3585   -6.8492 C   0  0  0  0  0  0  0  0  0  0  0  0
  -29.3386   -1.9549   -6.1055 C   0  0  0  0  0  0  0  0  0  0  0  0
  -29.8362   -3.1729   -6.3797 N   0  0  0  0  0  0  0  0  0  0  0  0
  -29.3575   -3.8498   -7.4383 C   0  0  0  0  0  0  0  0  0  0  0  0
  -28.3255   -3.3398   -8.2205 C   0  0  0  0  0  0  0  0  0  0  0  0
  -29.9074   -5.1067   -7.7601 N   0  0  0  0  0  0  0  0  0  0  0  0
  -29.5322   -6.2849   -7.1401 C   0  0  0  0  0  0  0  0  0  0  0  0
  -28.6940   -6.4331   -6.2685 O   0  0  0  0  0  0  0  0  0  0  0  0
  -30.5935   -5.1375   -8.4905 H   0  0  0  0  0  0  0  0  0  0  0  0
  -30.2147   -7.5356   -7.6077 C   0  0  0  0  0  0  0  0  0  0  0  0
  -31.5944   -7.8585   -7.0826 C   0  0  0  0  0  0  0  0  0  0  0  0
  -30.4508   -8.7973   -6.8243 C   0  0  0  0  0  0  0  0  0  0  0  0
  1  2  1  0  0  0
  2  3  1  0  0  0
  2  7  2  0  0  0
  3  4  2  0  0  0
  4  5  1  0  0  0
  5 24  1  0  0  0
  5  6  2  0  0  0
 24 25  1  0  0  0
 25 26  1  0  0  0
 25 30  2  0  0  0
 26 27  2  0  0  0
 27 28  1  0  0  0
 28 29  2  0  0  0
 29 31  1  0  0  0
 29 30  1  0  0  0
 31 32  1  0  0  0
 31 34  1  0  0  0
 32 33  2  0  0  0
 32 35  1  0  0  0
 35 36  1  0  0  0
 35 37  1  0  0  0
 36 37  1  0  0  0
  6  7  1  0  0  0
  7  8  1  0  0  0
  8  9  1  0  0  0
  8 12  1  0  0  0
  9 10  2  0  0  0
  9 11  1  0  0  0
 11 14  1  0  0  0
 11 13  1  0  0  0
 14 15  1  0  0  0
 14 19  2  0  0  0
 15 16  2  0  0  0
 16 17  1  0  0  0
 17 18  2  0  0  0
 18 20  1  0  0  0
 18 19  1  0  0  0
 20 21  1  0  0  0
 20 22  1  0  0  0
 20 23  1  0  0  0
M  END
> <minimizedAffinity>
-11.24253

$$$$
