CHEMBL365109


 32 34  0  0  0  0  0  0  0  0999 V2000
  -13.2288   -2.5619  -12.4522 C   0  0  0  0  0  0  0  0  0  0  0  0
  -12.2913   -1.8428  -13.1636 C   0  0  0  0  0  0  0  0  0  0  0  0
  -12.9298   -1.0112  -14.0222 N   0  0  0  0  0  0  0  0  0  0  0  0
  -12.2868   -0.1602  -14.8331 N   0  0  0  0  0  0  0  0  0  0  0  0
  -13.0676    0.5957  -15.5226 C   0  0  0  0  0  0  0  0  0  0  0  0
  -14.4313    0.5936  -15.4888 N   0  0  0  0  0  0  0  0  0  0  0  0
  -15.0713   -0.2329  -14.7077 C   0  0  0  0  0  0  0  0  0  0  0  0
  -14.2889   -1.1476  -13.9028 C   0  0  0  0  0  0  0  0  0  0  0  0
  -14.5386   -2.1502  -12.9507 C   0  0  0  0  0  0  0  0  0  0  0  0
  -15.8272   -2.7213  -12.3718 C   0  0  0  0  0  0  0  0  0  0  0  0
  -16.1757   -4.0772  -12.9902 C   0  0  0  0  0  0  0  0  0  0  0  0
  -15.9473   -2.7746  -10.8545 C   0  0  0  0  0  0  0  0  0  0  0  0
  -12.8841   -3.4745  -11.3574 C   0  0  0  0  0  0  0  0  0  0  0  0
  -12.5038   -3.1088  -10.2526 O   0  0  0  0  0  0  0  0  0  0  0  0
  -12.9307   -4.7813  -11.7544 O   0  0  0  0  0  0  0  0  0  0  0  0
  -14.0739   -6.8760  -11.6172 C   0  0  0  0  0  0  0  0  0  0  0  0
  -13.5485   -5.6860  -10.8325 C   0  0  0  0  0  0  0  0  0  0  0  0
  -16.4506   -0.2025  -14.7127 N   0  0  0  0  0  0  0  0  0  0  0  0
  -16.8322   -0.9790  -15.2401 H   0  0  0  0  0  0  0  0  0  0  0  0
  -17.2096    0.9814  -14.8892 C   0  0  0  0  0  0  0  0  0  0  0  0
  -16.6684    2.0590  -15.6038 C   0  0  0  0  0  0  0  0  0  0  0  0
  -17.4294    3.2032  -15.8558 C   0  0  0  0  0  0  0  0  0  0  0  0
  -18.7513    3.2675  -15.4236 C   0  0  0  0  0  0  0  0  0  0  0  0
  -19.4502    4.3788  -15.7025 F   0  0  0  0  0  0  0  0  0  0  0  0
  -19.3318    2.1999  -14.7410 C   0  0  0  0  0  0  0  0  0  0  0  0
  -18.5516    1.0624  -14.4760 C   0  0  0  0  0  0  0  0  0  0  0  0
  -20.7638    2.1880  -14.3278 C   0  0  0  0  0  0  0  0  0  0  0  0
  -21.3180    3.2429  -14.0389 O   0  0  0  0  0  0  0  0  0  0  0  0
  -21.3650    0.9520  -14.2526 N   0  0  0  0  0  0  0  0  0  0  0  0
  -21.0046    0.1492  -14.7573 H   0  0  0  0  0  0  0  0  0  0  0  0
  -22.7543    0.9445  -13.9987 O   0  0  0  0  0  0  0  0  0  0  0  0
  -23.1784   -0.4162  -13.9483 C   0  0  0  0  0  0  0  0  0  0  0  0
 16 17  1  0  0  0
 17 15  1  0  0  0
 15 13  1  0  0  0
 13 14  2  0  0  0
 13  1  1  0  0  0
  1  2  2  0  0  0
  1  9  1  0  0  0
  2  3  1  0  0  0
  3  4  1  0  0  0
  3  8  1  0  0  0
  4  5  2  0  0  0
  5  6  1  0  0  0
  6  7  2  0  0  0
  7 18  1  0  0  0
  7  8  1  0  0  0
 18 20  1  0  0  0
 18 19  1  0  0  0
 20 21  1  0  0  0
 20 26  2  0  0  0
 21 22  2  0  0  0
 22 23  1  0  0  0
 23 24  1  0  0  0
 23 25  2  0  0  0
 25 27  1  0  0  0
 25 26  1  0  0  0
 27 28  2  0  0  0
 27 29  1  0  0  0
 29 31  1  0  0  0
 29 30  1  0  0  0
 31 32  1  0  0  0
  8  9  2  0  0  0
  9 10  1  0  0  0
 10 11  1  0  0  0
 10 12  1  0  0  0
M  END
> <minimizedAffinity>
-7.80796

$$$$
