CHEMBL4643533


 58 63  0  0  0  0  0  0  0  0999 V2000
  -28.2916   -6.5519   -7.7870 C   0  0  0  0  0  0  0  0  0  0  0  0
  -28.2023   -5.3615   -8.4201 N   0  0  0  0  0  0  0  0  0  0  0  0
  -28.6330   -4.2542   -7.8037 C   0  0  0  0  0  0  0  0  0  0  0  0
  -29.0633   -4.2304   -6.5461 N   0  0  0  0  0  0  0  0  0  0  0  0
  -29.0140   -5.3962   -5.8818 C   0  0  0  0  0  0  0  0  0  0  0  0
  -28.6549   -6.6144   -6.4401 C   0  0  0  0  0  0  0  0  0  0  0  0
  -28.7093   -7.8139   -5.6934 N   0  0  0  0  0  0  0  0  0  0  0  0
  -27.7345   -8.2221   -4.7903 C   0  0  0  0  0  0  0  0  0  0  0  0
  -26.7498   -7.5709   -4.4429 O   0  0  0  0  0  0  0  0  0  0  0  0
  -29.5066   -8.4358   -5.8171 H   0  0  0  0  0  0  0  0  0  0  0  0
  -27.9689   -9.5523   -4.1803 C   0  0  0  0  0  0  0  0  0  0  0  0
  -29.2248  -10.1113   -4.2093 C   0  0  0  0  0  0  0  0  0  0  0  0
  -29.3127  -11.3425   -3.6344 C   0  0  0  0  0  0  0  0  0  0  0  0
  -28.2700  -11.9795   -3.0741 N   0  0  0  0  0  0  0  0  0  0  0  0
  -27.0922  -11.3344   -3.0997 C   0  0  0  0  0  0  0  0  0  0  0  0
  -26.8775  -10.1381   -3.6424 N   0  0  0  0  0  0  0  0  0  0  0  0
  -30.5537  -11.9471   -3.6644 O   0  0  0  0  0  0  0  0  0  0  0  0
  -31.0406  -12.1525   -4.9898 C   0  0  0  0  0  0  0  0  0  0  0  0
  -25.9807  -11.9124   -2.5422 O   0  0  0  0  0  0  0  0  0  0  0  0
  -24.7918  -11.1752   -2.7781 C   0  0  0  0  0  0  0  0  0  0  0  0
  -28.1235   -7.7270   -8.5987 N   0  0  0  0  0  0  0  0  0  0  0  0
  -27.1873   -8.0954   -8.4640 H   0  0  0  0  0  0  0  0  0  0  0  0
  -28.7213  -10.1812   -8.3837 C   0  0  0  0  0  0  0  0  0  0  0  0
  -29.7357  -11.1693   -8.3910 C   0  0  0  0  0  0  0  0  0  0  0  0
  -31.0826  -10.8217   -8.4170 C   0  0  0  0  0  0  0  0  0  0  0  0
  -31.4323   -9.4839   -8.4091 C   0  0  0  0  0  0  0  0  0  0  0  0
  -30.4354   -8.5065   -8.4269 C   0  0  0  0  0  0  0  0  0  0  0  0
  -29.0550   -8.8184   -8.4977 C   0  0  0  0  0  0  0  0  0  0  0  0
  -27.0636  -10.8256   -8.3088 S   0  0  0  0  0  0  0  0  0  0  0  0
  -27.0890  -12.2715   -8.3190 O   0  0  0  0  0  0  0  0  0  0  0  0
  -26.3607  -10.0650   -7.3095 O   0  0  0  0  0  0  0  0  0  0  0  0
  -26.4208  -10.3317   -9.8337 N   0  0  0  0  0  0  0  0  0  0  0  0
  -26.0017   -9.4037   -9.7687 H   0  0  0  0  0  0  0  0  0  0  0  0
  -27.1708   -9.3057  -11.9350 C   0  0  0  0  0  0  0  0  0  0  0  0
  -27.3065  -10.4952  -10.9965 C   0  0  0  0  0  0  0  0  0  0  0  0
  -28.8012   -3.0752   -8.5073 N   0  0  0  0  0  0  0  0  0  0  0  0
  -29.6956   -2.6576   -8.3060 H   0  0  0  0  0  0  0  0  0  0  0  0
  -27.9682   -2.4498   -9.4290 C   0  0  0  0  0  0  0  0  0  0  0  0
  -26.6785   -2.0386   -9.1141 C   0  0  0  0  0  0  0  0  0  0  0  0
  -25.8734   -1.4192  -10.0753 C   0  0  0  0  0  0  0  0  0  0  0  0
  -26.3041   -1.2498  -11.4091 C   0  0  0  0  0  0  0  0  0  0  0  0
  -27.6038   -1.7082  -11.7297 C   0  0  0  0  0  0  0  0  0  0  0  0
  -28.4110   -2.2960  -10.7425 C   0  0  0  0  0  0  0  0  0  0  0  0
  -25.3775   -0.7000  -12.3109 N   0  0  0  0  0  0  0  0  0  0  0  0
  -24.3625    0.2004  -11.7732 C   0  0  0  0  0  0  0  0  0  0  0  0
  -23.9153    1.1193  -12.9060 C   0  0  0  0  0  0  0  0  0  0  0  0
  -23.3066    0.3602  -14.1196 C   0  0  0  0  0  0  0  0  0  0  0  0
  -24.2643   -0.8198  -14.4793 C   0  0  0  0  0  0  0  0  0  0  0  0
  -24.8122   -1.6312  -13.2943 C   0  0  0  0  0  0  0  0  0  0  0  0
  -21.8655    0.0239  -13.9129 N   0  0  0  0  0  0  0  0  0  0  0  0
  -21.1618    1.0137  -13.0424 C   0  0  0  0  0  0  0  0  0  0  0  0
  -20.8931    2.3982  -13.6859 C   0  0  0  0  0  0  0  0  0  0  0  0
  -20.1113    2.3069  -14.9277 N   0  0  0  0  0  0  0  0  0  0  0  0
  -20.0277    3.6153  -15.5801 C   0  0  0  0  0  0  0  0  0  0  0  0
  -20.6906    1.3002  -15.8369 C   0  0  0  0  0  0  0  0  0  0  0  0
  -21.0493   -0.0502  -15.1536 C   0  0  0  0  0  0  0  0  0  0  0  0
  -28.0276   -1.5961  -13.0333 O   0  0  0  0  0  0  0  0  0  0  0  0
  -28.5860   -2.7580  -13.6317 C   0  0  0  0  0  0  0  0  0  0  0  0
 34 35  1  0  0  0
 35 32  1  0  0  0
 32 29  1  0  0  0
 32 33  1  0  0  0
 29 30  2  0  0  0
 29 31  2  0  0  0
 29 23  1  0  0  0
 23 24  1  0  0  0
 23 28  2  0  0  0
 24 25  2  0  0  0
 25 26  1  0  0  0
 26 27  2  0  0  0
 27 28  1  0  0  0
 28 21  1  0  0  0
 21  1  1  0  0  0
 21 22  1  0  0  0
  1  2  1  0  0  0
  1  6  2  0  0  0
  2  3  2  0  0  0
  3 36  1  0  0  0
  3  4  1  0  0  0
 36 38  1  0  0  0
 36 37  1  0  0  0
 38 39  1  0  0  0
 38 43  2  0  0  0
 39 40  2  0  0  0
 40 41  1  0  0  0
 41 44  1  0  0  0
 41 42  2  0  0  0
 44 45  1  0  0  0
 44 49  1  0  0  0
 45 46  1  0  0  0
 46 47  1  0  0  0
 47 50  1  0  0  0
 47 48  1  0  0  0
 50 51  1  0  0  0
 50 56  1  0  0  0
 51 52  1  0  0  0
 52 53  1  0  0  0
 53 54  1  0  0  0
 53 55  1  0  0  0
 55 56  1  0  0  0
 48 49  1  0  0  0
 42 57  1  0  0  0
 42 43  1  0  0  0
 57 58  1  0  0  0
  4  5  2  0  0  0
  5  6  1  0  0  0
  6  7  1  0  0  0
  7  8  1  0  0  0
  7 10  1  0  0  0
  8  9  2  0  0  0
  8 11  1  0  0  0
 11 12  1  0  0  0
 11 16  2  0  0  0
 12 13  2  0  0  0
 13 17  1  0  0  0
 13 14  1  0  0  0
 17 18  1  0  0  0
 14 15  2  0  0  0
 15 19  1  0  0  0
 15 16  1  0  0  0
 19 20  1  0  0  0
M  END
> <minimizedAffinity>
-6.40929

$$$$
