CHEMBL1988076


 39 44  0  0  0  0  0  0  0  0999 V2000
  -13.5972    3.6536  -16.3921 C   0  0  0  0  0  0  0  0  0  0  0  0
  -14.9499    3.5544  -16.7546 C   0  0  0  0  0  0  0  0  0  0  0  0
  -15.2083    4.2127  -17.9527 N   0  0  0  0  0  0  0  0  0  0  0  0
  -14.0602    4.7355  -18.2669 C   0  0  0  0  0  0  0  0  0  0  0  0
  -13.4959    5.7175  -19.5837 S   0  0  0  0  0  0  0  0  0  0  0  0
  -11.8868    5.7224  -18.8427 C   0  0  0  0  0  0  0  0  0  0  0  0
  -11.8398    5.0141  -17.7004 C   0  0  0  0  0  0  0  0  0  0  0  0
  -13.0656    4.4601  -17.3807 N   0  0  0  0  0  0  0  0  0  0  0  0
  -11.4928    1.3994  -14.5827 C   0  0  0  0  0  0  0  0  0  0  0  0
  -11.0270    2.0904  -13.5333 N   0  0  0  0  0  0  0  0  0  0  0  0
  -11.5190    3.3340  -13.3575 C   0  0  0  0  0  0  0  0  0  0  0  0
  -12.4369    3.9184  -14.1957 C   0  0  0  0  0  0  0  0  0  0  0  0
  -12.8178    3.1537  -15.2699 C   0  0  0  0  0  0  0  0  0  0  0  0
  -12.3936    1.8946  -15.4417 N   0  0  0  0  0  0  0  0  0  0  0  0
  -10.9578    0.1253  -14.8176 N   0  0  0  0  0  0  0  0  0  0  0  0
  -10.8152    0.0401  -15.8172 H   0  0  0  0  0  0  0  0  0  0  0  0
  -12.5881   -1.7318  -16.4084 C   0  0  0  0  0  0  0  0  0  0  0  0
  -12.2287   -1.9744  -14.9679 C   0  0  0  0  0  0  0  0  0  0  0  0
  -12.7136   -3.1389  -14.3434 C   0  0  0  0  0  0  0  0  0  0  0  0
  -12.3976   -3.4302  -13.0176 C   0  0  0  0  0  0  0  0  0  0  0  0
  -11.6079   -2.5550  -12.2888 C   0  0  0  0  0  0  0  0  0  0  0  0
  -11.1399   -1.3868  -12.8891 C   0  0  0  0  0  0  0  0  0  0  0  0
  -11.4217   -1.0805  -14.2341 C   0  0  0  0  0  0  0  0  0  0  0  0
  -16.0248    2.8390  -16.0658 C   0  0  0  0  0  0  0  0  0  0  0  0
  -17.3188    3.3702  -16.1389 C   0  0  0  0  0  0  0  0  0  0  0  0
  -18.3891    2.7160  -15.5367 C   0  0  0  0  0  0  0  0  0  0  0  0
  -18.1891    1.4978  -14.8873 C   0  0  0  0  0  0  0  0  0  0  0  0
  -16.9160    0.9309  -14.8106 C   0  0  0  0  0  0  0  0  0  0  0  0
  -15.8310    1.6471  -15.3437 C   0  0  0  0  0  0  0  0  0  0  0  0
  -16.6619   -0.3548  -14.2635 N   0  0  0  0  0  0  0  0  0  0  0  0
  -15.9365   -0.6297  -13.1130 C   0  0  0  0  0  0  0  0  0  0  0  0
  -15.3640    0.1997  -12.4071 O   0  0  0  0  0  0  0  0  0  0  0  0
  -17.1608   -1.1213  -14.6945 H   0  0  0  0  0  0  0  0  0  0  0  0
  -15.8837   -2.0542  -12.6635 C   0  0  0  0  0  0  0  0  0  0  0  0
  -15.6314   -2.4305  -11.3399 C   0  0  0  0  0  0  0  0  0  0  0  0
  -15.6270   -3.7856  -10.9861 C   0  0  0  0  0  0  0  0  0  0  0  0
  -15.8821   -4.7676  -11.9467 C   0  0  0  0  0  0  0  0  0  0  0  0
  -16.1463   -4.3996  -13.2629 C   0  0  0  0  0  0  0  0  0  0  0  0
  -16.1478   -3.0492  -13.6180 C   0  0  0  0  0  0  0  0  0  0  0  0
 17 18  1  0  0  0
 18 19  1  0  0  0
 18 23  2  0  0  0
 19 20  2  0  0  0
 20 21  1  0  0  0
 21 22  2  0  0  0
 22 23  1  0  0  0
 23 15  1  0  0  0
 15  9  1  0  0  0
 15 16  1  0  0  0
  9 10  1  0  0  0
  9 14  2  0  0  0
 10 11  2  0  0  0
 11 12  1  0  0  0
 12 13  2  0  0  0
 13  1  1  0  0  0
 13 14  1  0  0  0
  1  2  2  0  0  0
  1  8  1  0  0  0
  2 24  1  0  0  0
  2  3  1  0  0  0
 24 25  1  0  0  0
 24 29  2  0  0  0
 25 26  2  0  0  0
 26 27  1  0  0  0
 27 28  2  0  0  0
 28 30  1  0  0  0
 28 29  1  0  0  0
 30 31  1  0  0  0
 30 33  1  0  0  0
 31 32  2  0  0  0
 31 34  1  0  0  0
 34 35  1  0  0  0
 34 39  2  0  0  0
 35 36  2  0  0  0
 36 37  1  0  0  0
 37 38  2  0  0  0
 38 39  1  0  0  0
  3  4  2  0  0  0
  4  5  1  0  0  0
  4  8  1  0  0  0
  5  6  1  0  0  0
  6  7  2  0  0  0
  7  8  1  0  0  0
M  END
> <minimizedAffinity>
-8.44486

$$$$
