CHEMBL185695


 39 42  0  0  0  0  0  0  0  0999 V2000
  -15.2685    2.6508  -16.5956 C   0  0  0  0  0  0  0  0  0  0  0  0
  -15.7605    2.0950  -15.3273 N   0  0  0  0  0  0  0  0  0  0  0  0
  -17.1560    1.9779  -15.1821 C   0  0  0  0  0  0  0  0  0  0  0  0
  -17.8008    0.7444  -15.2441 C   0  0  0  0  0  0  0  0  0  0  0  0
  -19.1822    0.6461  -15.0910 C   0  0  0  0  0  0  0  0  0  0  0  0
  -19.9689    1.7731  -14.8514 C   0  0  0  0  0  0  0  0  0  0  0  0
  -19.3408    3.0176  -14.7886 C   0  0  0  0  0  0  0  0  0  0  0  0
  -17.9525    3.1159  -14.9594 C   0  0  0  0  0  0  0  0  0  0  0  0
  -21.3717    1.7127  -14.6923 N   0  0  0  0  0  0  0  0  0  0  0  0
  -22.0446    0.7975  -13.9038 C   0  0  0  0  0  0  0  0  0  0  0  0
  -21.5100   -0.0076  -13.1495 O   0  0  0  0  0  0  0  0  0  0  0  0
  -23.4188    0.8552  -14.0969 N   0  0  0  0  0  0  0  0  0  0  0  0
  -21.9197    2.4621  -15.0877 H   0  0  0  0  0  0  0  0  0  0  0  0
  -23.6936    1.0747  -15.0430 H   0  0  0  0  0  0  0  0  0  0  0  0
  -24.2468   -0.0617  -13.4046 C   0  0  0  0  0  0  0  0  0  0  0  0
  -24.9003   -1.0996  -14.0800 C   0  0  0  0  0  0  0  0  0  0  0  0
  -25.8175   -1.9085  -13.4103 C   0  0  0  0  0  0  0  0  0  0  0  0
  -26.0844   -1.6815  -12.0643 C   0  0  0  0  0  0  0  0  0  0  0  0
  -25.4095   -0.6698  -11.3793 C   0  0  0  0  0  0  0  0  0  0  0  0
  -24.4710    0.1262  -12.0412 C   0  0  0  0  0  0  0  0  0  0  0  0
  -14.7773    1.3204  -14.6560 C   0  0  0  0  0  0  0  0  0  0  0  0
  -13.7532    1.9180  -13.9468 C   0  0  0  0  0  0  0  0  0  0  0  0
  -12.8438    1.0848  -13.3415 C   0  0  0  0  0  0  0  0  0  0  0  0
  -12.9007   -0.2535  -13.4126 N   0  0  0  0  0  0  0  0  0  0  0  0
  -13.9189   -0.7634  -14.1171 C   0  0  0  0  0  0  0  0  0  0  0  0
  -14.8565   -0.0160  -14.7186 N   0  0  0  0  0  0  0  0  0  0  0  0
  -13.9706   -2.1542  -14.2404 N   0  0  0  0  0  0  0  0  0  0  0  0
  -13.9921   -2.3762  -15.2239 H   0  0  0  0  0  0  0  0  0  0  0  0
  -14.7340   -3.0199  -13.4372 C   0  0  0  0  0  0  0  0  0  0  0  0
  -15.3852   -2.5161  -12.3108 C   0  0  0  0  0  0  0  0  0  0  0  0
  -16.1639   -3.3557  -11.5112 C   0  0  0  0  0  0  0  0  0  0  0  0
  -16.2792   -4.7148  -11.8159 C   0  0  0  0  0  0  0  0  0  0  0  0
  -15.5947   -5.2560  -12.9094 C   0  0  0  0  0  0  0  0  0  0  0  0
  -14.8213   -4.3960  -13.7025 C   0  0  0  0  0  0  0  0  0  0  0  0
  -15.6412   -6.7286  -13.2168 C   0  0  0  0  0  0  0  0  0  0  0  0
  -14.1054   -7.5600  -12.8362 S   0  0  0  0  0  0  0  0  0  0  0  0
  -13.5058   -6.7714  -11.3656 C   0  0  0  0  0  0  0  0  0  0  0  0
  -14.4434   -8.9251  -12.4678 O   0  0  0  0  0  0  0  0  0  0  0  0
  -13.1481   -7.3175  -13.9001 O   0  0  0  0  0  0  0  0  0  0  0  0
  1  2  1  0  0  0
  2  3  1  0  0  0
  2 21  1  0  0  0
  3  4  1  0  0  0
  3  8  2  0  0  0
  4  5  2  0  0  0
  5  6  1  0  0  0
  6  9  1  0  0  0
  6  7  2  0  0  0
  9 10  1  0  0  0
  9 13  1  0  0  0
 10 11  2  0  0  0
 10 12  1  0  0  0
 12 15  1  0  0  0
 12 14  1  0  0  0
 15 16  1  0  0  0
 15 20  2  0  0  0
 16 17  2  0  0  0
 17 18  1  0  0  0
 18 19  2  0  0  0
 19 20  1  0  0  0
  7  8  1  0  0  0
 21 22  1  0  0  0
 21 26  2  0  0  0
 22 23  2  0  0  0
 23 24  1  0  0  0
 24 25  2  0  0  0
 25 27  1  0  0  0
 25 26  1  0  0  0
 27 29  1  0  0  0
 27 28  1  0  0  0
 29 30  1  0  0  0
 29 34  2  0  0  0
 30 31  2  0  0  0
 31 32  1  0  0  0
 32 33  2  0  0  0
 33 35  1  0  0  0
 33 34  1  0  0  0
 35 36  1  0  0  0
 36 37  1  0  0  0
 36 38  2  0  0  0
 36 39  2  0  0  0
M  END
> <minimizedAffinity>
-9.63293

$$$$
