CHEMBL319347


 20 20  0  0  0  0  0  0  0  0999 V2000
  -28.3507   -0.7869   -5.8626 C   0  0  0  0  0  0  0  0  0  0  0  0
  -28.8402   -1.0629   -4.6462 C   0  0  0  0  0  0  0  0  0  0  0  0
  -29.0069   -2.4404   -4.1619 C   0  0  0  0  0  0  0  0  0  0  0  0
  -29.2685   -2.6768   -2.9845 O   0  0  0  0  0  0  0  0  0  0  0  0
  -28.8130   -3.5741   -5.1223 C   0  0  0  0  0  0  0  0  0  0  0  0
  -28.2848   -3.3037   -6.3191 C   0  0  0  0  0  0  0  0  0  0  0  0
  -27.9517   -1.9275   -6.7545 C   0  0  0  0  0  0  0  0  0  0  0  0
  -27.3812   -1.7587   -7.8247 O   0  0  0  0  0  0  0  0  0  0  0  0
  -29.2964    1.3110   -6.5756 C   0  0  0  0  0  0  0  0  0  0  0  0
  -28.1580    0.4790   -6.3841 O   0  0  0  0  0  0  0  0  0  0  0  0
  -29.2197   -4.8226   -4.6572 N   0  0  0  0  0  0  0  0  0  0  0  0
  -28.4770   -5.5176   -4.7982 H   0  0  0  0  0  0  0  0  0  0  0  0
  -30.5579   -5.4121   -4.8788 C   0  0  0  0  0  0  0  0  0  0  0  0
  -31.2541   -5.6264   -3.5185 C   0  0  0  0  0  0  0  0  0  0  0  0
  -32.0511   -4.8276   -3.0382 O   0  0  0  0  0  0  0  0  0  0  0  0
  -30.8512   -6.7209   -2.8246 O   0  0  0  0  0  0  0  0  0  0  0  0
  -30.2083   -7.2893   -3.3146 H   0  0  0  0  0  0  0  0  0  0  0  0
  -30.4502   -6.7458   -5.6356 C   0  0  0  0  0  0  0  0  0  0  0  0
  -31.7390   -7.3832   -5.6909 O   0  0  0  0  0  0  0  0  0  0  0  0
  -31.9179   -7.7485   -4.7964 H   0  0  0  0  0  0  0  0  0  0  0  0
  9 10  1  0  0  0
 10  1  1  0  0  0
  1  2  2  0  0  0
  1  7  1  0  0  0
  2  3  1  0  0  0
  3  4  2  0  0  0
  3  5  1  0  0  0
  5 11  1  0  0  0
  5  6  2  0  0  0
 11 13  1  0  0  0
 11 12  1  0  0  0
 13 18  1  0  0  0
 13 14  1  0  0  0
 18 19  1  0  0  0
 19 20  1  0  0  0
 14 15  2  0  0  0
 14 16  1  0  0  0
 16 17  1  0  0  0
  6  7  1  0  0  0
  7  8  2  0  0  0
M  END
> <minimizedAffinity>
-6.29462

$$$$
