CHEMBL3740673


 40 44  0  0  0  0  0  0  0  0999 V2000
  -24.0558    9.8476  -17.5725 O   0  0  0  0  0  0  0  0  0  0  0  0
  -25.0131   10.5668  -16.8775 C   0  0  0  0  0  0  0  0  0  0  0  0
  -25.1578   11.9493  -16.9972 C   0  0  0  0  0  0  0  0  0  0  0  0
  -25.9595   12.6525  -16.1020 C   0  0  0  0  0  0  0  0  0  0  0  0
  -26.7818   11.9652  -15.2062 C   0  0  0  0  0  0  0  0  0  0  0  0
  -27.7191   12.6407  -14.4340 C   0  0  0  0  0  0  0  0  0  0  0  0
  -28.9762   12.5217  -15.0041 C   0  0  0  0  0  0  0  0  0  0  0  0
  -29.3374   11.2355  -15.3980 C   0  0  0  0  0  0  0  0  0  0  0  0
  -28.3540   10.2250  -15.4769 C   0  0  0  0  0  0  0  0  0  0  0  0
  -27.0037   10.6216  -15.5131 C   0  0  0  0  0  0  0  0  0  0  0  0
  -25.9830    9.8750  -16.1429 C   0  0  0  0  0  0  0  0  0  0  0  0
  -27.9260   12.2974  -12.9408 C   0  0  0  0  0  0  0  0  0  0  0  0
  -26.9082   12.2230  -12.2516 O   0  0  0  0  0  0  0  0  0  0  0  0
  -29.2245   12.1547  -12.4433 N   0  0  0  0  0  0  0  0  0  0  0  0
  -29.9765   12.0624  -13.1147 H   0  0  0  0  0  0  0  0  0  0  0  0
  -29.6199   12.2119  -11.0683 C   0  0  0  0  0  0  0  0  0  0  0  0
  -28.7258   12.1565   -9.9929 C   0  0  0  0  0  0  0  0  0  0  0  0
  -29.1713   12.2742   -8.6651 C   0  0  0  0  0  0  0  0  0  0  0  0
  -30.5244   12.4451   -8.3912 C   0  0  0  0  0  0  0  0  0  0  0  0
  -31.4332   12.5095   -9.4493 C   0  0  0  0  0  0  0  0  0  0  0  0
  -30.9788   12.4040  -10.7700 C   0  0  0  0  0  0  0  0  0  0  0  0
  -21.0484   11.1504  -19.0490 C   0  0  0  0  0  0  0  0  0  0  0  0
  -20.2364   11.3216  -18.0009 N   0  0  0  0  0  0  0  0  0  0  0  0
  -20.7663   11.0830  -16.7803 C   0  0  0  0  0  0  0  0  0  0  0  0
  -22.0497   10.6296  -16.5543 C   0  0  0  0  0  0  0  0  0  0  0  0
  -22.7772   10.3994  -17.6947 C   0  0  0  0  0  0  0  0  0  0  0  0
  -22.3061   10.7173  -18.9118 N   0  0  0  0  0  0  0  0  0  0  0  0
  -20.5410   11.4173  -20.3226 N   0  0  0  0  0  0  0  0  0  0  0  0
  -21.2907   11.5899  -20.9752 H   0  0  0  0  0  0  0  0  0  0  0  0
  -16.7327   10.3378  -21.8601 C   0  0  0  0  0  0  0  0  0  0  0  0
  -17.7199    9.3713  -21.6758 C   0  0  0  0  0  0  0  0  0  0  0  0
  -18.9738    9.7301  -21.1865 C   0  0  0  0  0  0  0  0  0  0  0  0
  -19.3005   11.0553  -20.8768 C   0  0  0  0  0  0  0  0  0  0  0  0
  -18.3003   12.0206  -21.0544 C   0  0  0  0  0  0  0  0  0  0  0  0
  -17.0335   11.6698  -21.5506 C   0  0  0  0  0  0  0  0  0  0  0  0
  -15.3871    9.9277  -22.3873 C   0  0  0  0  0  0  0  0  0  0  0  0
  -12.8832    9.6064  -21.2595 C   0  0  0  0  0  0  0  0  0  0  0  0
  -14.5302    8.9566  -21.1518 S   0  0  0  0  0  0  0  0  0  0  0  0
  -14.4694    7.5761  -21.5955 O   0  0  0  0  0  0  0  0  0  0  0  0
  -15.0276    9.3026  -19.8325 O   0  0  0  0  0  0  0  0  0  0  0  0
 37 38  1  0  0  0
 38 39  2  0  0  0
 38 40  2  0  0  0
 38 36  1  0  0  0
 36 30  1  0  0  0
 30 31  1  0  0  0
 30 35  2  0  0  0
 31 32  2  0  0  0
 32 33  1  0  0  0
 33 28  1  0  0  0
 33 34  2  0  0  0
 28 22  1  0  0  0
 28 29  1  0  0  0
 22 23  1  0  0  0
 22 27  2  0  0  0
 23 24  2  0  0  0
 24 25  1  0  0  0
 25 26  2  0  0  0
 26  1  1  0  0  0
 26 27  1  0  0  0
  1  2  1  0  0  0
  2  3  1  0  0  0
  2 11  2  0  0  0
  3  4  2  0  0  0
  4  5  1  0  0  0
  5  6  1  0  0  0
  5 10  2  0  0  0
  6 12  1  0  0  0
  6  7  2  0  0  0
 12 13  2  0  0  0
 12 14  1  0  0  0
 14 16  1  0  0  0
 14 15  1  0  0  0
 16 17  1  0  0  0
 16 21  2  0  0  0
 17 18  2  0  0  0
 18 19  1  0  0  0
 19 20  2  0  0  0
 20 21  1  0  0  0
  7  8  1  0  0  0
  8  9  2  0  0  0
  9 10  1  0  0  0
 10 11  1  0  0  0
 34 35  1  0  0  0
M  END
> <minimizedAffinity>
-5.09027

$$$$
