CHEMBL3633274


 43 46  0  0  0  0  0  0  0  0999 V2000
  -15.9768    0.2931  -13.3525 N   0  0  0  0  0  0  0  0  0  0  0  0
  -15.2478   -0.8242  -13.7517 C   0  0  0  0  0  0  0  0  0  0  0  0
  -14.9267   -1.0779  -14.9067 O   0  0  0  0  0  0  0  0  0  0  0  0
  -14.9455   -1.6829  -12.7127 N   0  0  0  0  0  0  0  0  0  0  0  0
  -15.9325    0.5801  -12.3799 H   0  0  0  0  0  0  0  0  0  0  0  0
  -15.5636   -1.6321  -11.9097 H   0  0  0  0  0  0  0  0  0  0  0  0
  -15.8233    2.0837  -15.0728 C   0  0  0  0  0  0  0  0  0  0  0  0
  -16.4795    3.0419  -15.8754 C   0  0  0  0  0  0  0  0  0  0  0  0
  -17.8687    3.1502  -15.8868 C   0  0  0  0  0  0  0  0  0  0  0  0
  -18.6253    2.2801  -15.1147 C   0  0  0  0  0  0  0  0  0  0  0  0
  -17.9786    1.3595  -14.2823 C   0  0  0  0  0  0  0  0  0  0  0  0
  -16.5865    1.2311  -14.2429 C   0  0  0  0  0  0  0  0  0  0  0  0
  -13.6854    3.1233  -15.1163 C   0  0  0  0  0  0  0  0  0  0  0  0
  -14.4596    1.9075  -15.0868 O   0  0  0  0  0  0  0  0  0  0  0  0
  -20.1095    2.4105  -15.1126 C   0  0  0  0  0  0  0  0  0  0  0  0
  -20.7075    3.4452  -15.2915 O   0  0  0  0  0  0  0  0  0  0  0  0
  -20.6464    1.2130  -14.7721 O   0  0  0  0  0  0  0  0  0  0  0  0
  -21.8481    1.2966  -13.9961 C   0  0  0  0  0  0  0  0  0  0  0  0
  -22.3809   -0.1367  -13.7801 C   0  0  0  0  0  0  0  0  0  0  0  0
  -22.8969   -0.4159  -12.4281 N   0  0  0  0  0  0  0  0  0  0  0  0
  -24.1111    0.3456  -12.1438 C   0  0  0  0  0  0  0  0  0  0  0  0
  -23.1707   -1.8506  -12.2864 C   0  0  0  0  0  0  0  0  0  0  0  0
  -14.2438   -2.9025  -12.9306 C   0  0  0  0  0  0  0  0  0  0  0  0
  -14.3452   -3.4730  -14.2133 C   0  0  0  0  0  0  0  0  0  0  0  0
  -13.6981   -4.6669  -14.5653 C   0  0  0  0  0  0  0  0  0  0  0  0
  -12.9850   -5.3328  -13.5676 C   0  0  0  0  0  0  0  0  0  0  0  0
  -12.8870   -4.7982  -12.2806 C   0  0  0  0  0  0  0  0  0  0  0  0
  -13.4757   -3.5632  -11.9579 C   0  0  0  0  0  0  0  0  0  0  0  0
  -13.7540   -5.1996  -15.9475 C   0  0  0  0  0  0  0  0  0  0  0  0
  -13.8149   -6.5857  -16.1712 C   0  0  0  0  0  0  0  0  0  0  0  0
  -13.7060   -7.1518  -17.4492 C   0  0  0  0  0  0  0  0  0  0  0  0
  -13.7047   -6.2532  -18.4883 C   0  0  0  0  0  0  0  0  0  0  0  0
  -13.5891   -6.4537  -19.8673 N   0  0  0  0  0  0  0  0  0  0  0  0
  -14.4111   -5.4894  -20.4087 C   0  0  0  0  0  0  0  0  0  0  0  0
  -14.2388   -4.3761  -19.6249 C   0  0  0  0  0  0  0  0  0  0  0  0
  -13.8405   -4.8809  -18.3491 C   0  0  0  0  0  0  0  0  0  0  0  0
  -13.7493   -4.3353  -17.0602 C   0  0  0  0  0  0  0  0  0  0  0  0
  -12.6790   -6.6443  -20.2671 H   0  0  0  0  0  0  0  0  0  0  0  0
  -13.3222   -3.2659  -10.6381 O   0  0  0  0  0  0  0  0  0  0  0  0
  -14.1822   -3.7675   -9.6525 C   0  0  0  0  0  0  0  0  0  0  0  0
  -13.5757   -4.4708   -8.6748 F   0  0  0  0  0  0  0  0  0  0  0  0
  -14.8454   -2.7407   -9.0814 F   0  0  0  0  0  0  0  0  0  0  0  0
  -15.0952   -4.5893  -10.2335 F   0  0  0  0  0  0  0  0  0  0  0  0
 13 14  1  0  0  0
 14  7  1  0  0  0
  7  8  1  0  0  0
  7 12  2  0  0  0
  8  9  2  0  0  0
  9 10  1  0  0  0
 10 15  1  0  0  0
 10 11  2  0  0  0
 15 16  2  0  0  0
 15 17  1  0  0  0
 17 18  1  0  0  0
 18 19  1  0  0  0
 19 20  1  0  0  0
 20 21  1  0  0  0
 20 22  1  0  0  0
 11 12  1  0  0  0
 12  1  1  0  0  0
  1  2  1  0  0  0
  1  5  1  0  0  0
  2  3  2  0  0  0
  2  4  1  0  0  0
  4 23  1  0  0  0
  4  6  1  0  0  0
 23 24  1  0  0  0
 23 28  2  0  0  0
 24 25  2  0  0  0
 25 29  1  0  0  0
 25 26  1  0  0  0
 29 30  1  0  0  0
 29 37  2  0  0  0
 30 31  2  0  0  0
 31 32  1  0  0  0
 32 33  1  0  0  0
 32 36  2  0  0  0
 33 34  1  0  0  0
 33 38  1  0  0  0
 34 35  2  0  0  0
 35 36  1  0  0  0
 36 37  1  0  0  0
 26 27  2  0  0  0
 27 28  1  0  0  0
 28 39  1  0  0  0
 39 40  1  0  0  0
 40 41  1  0  0  0
 40 42  1  0  0  0
 40 43  1  0  0  0
M  END
> <minimizedAffinity>
-8.47367

$$$$
