CHEMBL511251


 32 36  0  0  0  0  0  0  0  0999 V2000
  -15.8420    1.4020  -15.5083 C   0  0  0  0  0  0  0  0  0  0  0  0
  -15.8676    2.1972  -16.6729 C   0  0  0  0  0  0  0  0  0  0  0  0
  -14.9380    3.2181  -16.8407 C   0  0  0  0  0  0  0  0  0  0  0  0
  -13.9471    3.3969  -15.8850 C   0  0  0  0  0  0  0  0  0  0  0  0
  -13.8232    2.4901  -14.8266 C   0  0  0  0  0  0  0  0  0  0  0  0
  -14.7267    1.4252  -14.6464 C   0  0  0  0  0  0  0  0  0  0  0  0
  -17.3535   -0.2806  -14.7528 O   0  0  0  0  0  0  0  0  0  0  0  0
  -17.1774    0.8933  -15.0576 C   0  0  0  0  0  0  0  0  0  0  0  0
  -18.2589    1.8973  -15.0253 C   0  0  0  0  0  0  0  0  0  0  0  0
  -18.0989    3.2717  -14.8730 C   0  0  0  0  0  0  0  0  0  0  0  0
  -19.3098    3.8269  -15.1410 N   0  0  0  0  0  0  0  0  0  0  0  0
  -20.2518    2.9337  -14.7224 C   0  0  0  0  0  0  0  0  0  0  0  0
  -21.5188    3.1133  -14.1730 C   0  0  0  0  0  0  0  0  0  0  0  0
  -22.2628    1.9533  -13.9786 C   0  0  0  0  0  0  0  0  0  0  0  0
  -21.7834    0.7272  -14.4498 C   0  0  0  0  0  0  0  0  0  0  0  0
  -22.5879   -0.3046  -14.3130 F   0  0  0  0  0  0  0  0  0  0  0  0
  -20.5303    0.5682  -15.0029 C   0  0  0  0  0  0  0  0  0  0  0  0
  -19.6805    1.6878  -14.9876 C   0  0  0  0  0  0  0  0  0  0  0  0
  -19.4771    4.7030  -15.6186 H   0  0  0  0  0  0  0  0  0  0  0  0
  -14.5049    0.5781  -13.5452 N   0  0  0  0  0  0  0  0  0  0  0  0
  -14.0169    1.0687  -12.7974 H   0  0  0  0  0  0  0  0  0  0  0  0
  -13.8395   -0.7039  -13.8105 C   0  0  0  0  0  0  0  0  0  0  0  0
  -14.6609   -1.8586  -13.2636 C   0  0  0  0  0  0  0  0  0  0  0  0
  -15.3809   -1.6977  -12.0676 C   0  0  0  0  0  0  0  0  0  0  0  0
  -16.0878   -2.7583  -11.4857 C   0  0  0  0  0  0  0  0  0  0  0  0
  -16.1046   -3.9975  -12.1477 C   0  0  0  0  0  0  0  0  0  0  0  0
  -16.6505   -5.2804  -11.9053 C   0  0  0  0  0  0  0  0  0  0  0  0
  -16.4032   -6.1421  -12.8910 N   0  0  0  0  0  0  0  0  0  0  0  0
  -15.6943   -5.4245  -13.7747 N   0  0  0  0  0  0  0  0  0  0  0  0
  -15.4407   -4.1328  -13.3626 C   0  0  0  0  0  0  0  0  0  0  0  0
  -14.6973   -3.0935  -13.9413 C   0  0  0  0  0  0  0  0  0  0  0  0
  -15.3875   -5.8610  -14.6359 H   0  0  0  0  0  0  0  0  0  0  0  0
  7  8  2  0  0  0
  8  1  1  0  0  0
  8  9  1  0  0  0
  1  2  1  0  0  0
  1  6  2  0  0  0
  2  3  2  0  0  0
  3  4  1  0  0  0
  4  5  2  0  0  0
  5  6  1  0  0  0
  6 20  1  0  0  0
 20 22  1  0  0  0
 20 21  1  0  0  0
 22 23  1  0  0  0
 23 24  1  0  0  0
 23 31  2  0  0  0
 24 25  2  0  0  0
 25 26  1  0  0  0
 26 27  1  0  0  0
 26 30  2  0  0  0
 27 28  2  0  0  0
 28 29  1  0  0  0
 29 30  1  0  0  0
 29 32  1  0  0  0
 30 31  1  0  0  0
  9 10  2  0  0  0
  9 18  1  0  0  0
 10 11  1  0  0  0
 11 12  1  0  0  0
 11 19  1  0  0  0
 12 13  1  0  0  0
 12 18  2  0  0  0
 13 14  2  0  0  0
 14 15  1  0  0  0
 15 16  1  0  0  0
 15 17  2  0  0  0
 17 18  1  0  0  0
M  END
> <minimizedAffinity>
-9.53067

$$$$
