CHEMBL3933908


 37 41  0  0  0  0  0  0  0  0999 V2000
  -28.6219   -9.4937   -5.7743 N   0  0  0  0  0  0  0  0  0  0  0  0
  -28.5822   -8.1622   -5.1972 C   0  0  0  0  0  0  0  0  0  0  0  0
  -29.1178   -8.0831   -3.9133 C   0  0  0  0  0  0  0  0  0  0  0  0
  -29.6844   -6.9111   -3.4692 C   0  0  0  0  0  0  0  0  0  0  0  0
  -29.5964   -5.7440   -4.1801 C   0  0  0  0  0  0  0  0  0  0  0  0
  -30.3633   -4.7630   -3.7079 N   0  0  0  0  0  0  0  0  0  0  0  0
  -30.1896   -3.5481   -4.2385 C   0  0  0  0  0  0  0  0  0  0  0  0
  -29.1887   -3.2905   -5.1492 C   0  0  0  0  0  0  0  0  0  0  0  0
  -28.4768   -4.3246   -5.7320 N   0  0  0  0  0  0  0  0  0  0  0  0
  -28.7372   -5.6314   -5.2929 C   0  0  0  0  0  0  0  0  0  0  0  0
  -28.2750   -6.9156   -5.8297 C   0  0  0  0  0  0  0  0  0  0  0  0
  -28.8292   -1.8811   -5.3104 C   0  0  0  0  0  0  0  0  0  0  0  0
  -27.8435   -1.1221   -4.6208 C   0  0  0  0  0  0  0  0  0  0  0  0
  -27.9453    0.1954   -4.8402 N   0  0  0  0  0  0  0  0  0  0  0  0
  -28.9996    0.2914   -5.6666 N   0  0  0  0  0  0  0  0  0  0  0  0
  -29.2510    1.5166   -6.3905 C   0  0  0  0  0  0  0  0  0  0  0  0
  -29.6653   -0.8968   -5.8187 C   0  0  0  0  0  0  0  0  0  0  0  0
  -29.5290  -10.9316   -9.1215 C   0  0  0  0  0  0  0  0  0  0  0  0
  -30.8574  -11.2977   -8.9212 C   0  0  0  0  0  0  0  0  0  0  0  0
  -31.4784  -11.0035   -7.7138 C   0  0  0  0  0  0  0  0  0  0  0  0
  -30.7570  -10.3764   -6.6760 C   0  0  0  0  0  0  0  0  0  0  0  0
  -29.4224   -9.9817   -6.8411 C   0  0  0  0  0  0  0  0  0  0  0  0
  -28.8405  -10.2315   -8.1049 C   0  0  0  0  0  0  0  0  0  0  0  0
  -27.4168  -10.9339  -10.2371 C   0  0  0  0  0  0  0  0  0  0  0  0
  -28.8171  -11.2319  -10.2604 O   0  0  0  0  0  0  0  0  0  0  0  0
  -32.7841  -11.3078   -7.4071 O   0  0  0  0  0  0  0  0  0  0  0  0
  -33.0268  -11.8403   -6.1069 C   0  0  0  0  0  0  0  0  0  0  0  0
  -28.1854  -10.4776   -4.6921 C   0  0  0  0  0  0  0  0  0  0  0  0
  -26.7066  -10.7053   -4.4240 C   0  0  0  0  0  0  0  0  0  0  0  0
  -25.4382  -10.9008   -4.1939 C   0  0  0  0  0  0  0  0  0  0  0  0
  -24.0434  -11.1516   -3.9968 C   0  0  0  0  0  0  0  0  0  0  0  0
  -23.5731  -10.9890   -2.7539 N   0  0  0  0  0  0  0  0  0  0  0  0
  -22.2749  -11.2797   -2.5887 C   0  0  0  0  0  0  0  0  0  0  0  0
  -21.4537  -11.7197   -3.6058 C   0  0  0  0  0  0  0  0  0  0  0  0
  -22.0442  -11.8612   -4.8483 C   0  0  0  0  0  0  0  0  0  0  0  0
  -21.2406  -12.3240   -6.0261 C   0  0  0  0  0  0  0  0  0  0  0  0
  -23.3441  -11.5864   -5.0669 N   0  0  0  0  0  0  0  0  0  0  0  0
 24 25  1  0  0  0
 25 18  1  0  0  0
 18 19  1  0  0  0
 18 23  2  0  0  0
 19 20  2  0  0  0
 20 26  1  0  0  0
 20 21  1  0  0  0
 26 27  1  0  0  0
 21 22  2  0  0  0
 22  1  1  0  0  0
 22 23  1  0  0  0
  1 28  1  0  0  0
  1  2  1  0  0  0
 28 29  1  0  0  0
 29 30  3  0  0  0
 30 31  1  0  0  0
 31 32  1  0  0  0
 31 37  2  0  0  0
 32 33  2  0  0  0
 33 34  1  0  0  0
 34 35  2  0  0  0
 35 36  1  0  0  0
 35 37  1  0  0  0
  2  3  1  0  0  0
  2 11  2  0  0  0
  3  4  2  0  0  0
  4  5  1  0  0  0
  5  6  1  0  0  0
  5 10  2  0  0  0
  6  7  2  0  0  0
  7  8  1  0  0  0
  8 12  1  0  0  0
  8  9  2  0  0  0
 12 13  1  0  0  0
 12 17  2  0  0  0
 13 14  2  0  0  0
 14 15  1  0  0  0
 15 16  1  0  0  0
 15 17  1  0  0  0
  9 10  1  0  0  0
 10 11  1  0  0  0
M  END
> <minimizedAffinity>
-8.59416

$$$$
