CHEMBL3908195


 38 41  0  0  0  0  0  0  0  0999 V2000
  -25.3914   -1.8961  -12.1827 C   0  0  0  0  0  0  0  0  0  0  0  0
  -24.1208   -1.8108  -11.5967 C   0  0  0  0  0  0  0  0  0  0  0  0
  -23.0303   -1.3393  -12.3471 C   0  0  0  0  0  0  0  0  0  0  0  0
  -23.2017   -0.9312  -13.6752 C   0  0  0  0  0  0  0  0  0  0  0  0
  -24.4658   -1.0314  -14.2608 C   0  0  0  0  0  0  0  0  0  0  0  0
  -25.5411   -1.5152  -13.5167 C   0  0  0  0  0  0  0  0  0  0  0  0
  -26.7562   -1.5720  -14.0854 F   0  0  0  0  0  0  0  0  0  0  0  0
  -27.8490   -2.6093   -9.5951 N   0  0  0  0  0  0  0  0  0  0  0  0
  -26.6936   -2.0522  -10.1261 C   0  0  0  0  0  0  0  0  0  0  0  0
  -25.9143   -1.3144   -9.5384 O   0  0  0  0  0  0  0  0  0  0  0  0
  -26.5309   -2.3629  -11.4704 N   0  0  0  0  0  0  0  0  0  0  0  0
  -28.4360   -3.1237  -10.2351 H   0  0  0  0  0  0  0  0  0  0  0  0
  -27.3866   -2.3577  -12.0098 H   0  0  0  0  0  0  0  0  0  0  0  0
  -28.7515   -0.8262   -6.4351 C   0  0  0  0  0  0  0  0  0  0  0  0
  -29.1641   -1.8868   -5.6172 C   0  0  0  0  0  0  0  0  0  0  0  0
  -29.2153   -3.1770   -6.1263 C   0  0  0  0  0  0  0  0  0  0  0  0
  -28.8376   -3.4274   -7.4432 C   0  0  0  0  0  0  0  0  0  0  0  0
  -29.0581   -4.6721   -7.8797 F   0  0  0  0  0  0  0  0  0  0  0  0
  -28.3464   -2.4100   -8.2759 C   0  0  0  0  0  0  0  0  0  0  0  0
  -28.3405   -1.0976   -7.7618 C   0  0  0  0  0  0  0  0  0  0  0  0
  -30.1606    1.0162   -5.4553 C   0  0  0  0  0  0  0  0  0  0  0  0
  -28.7646    0.5813   -5.8720 C   0  0  0  0  0  0  0  0  0  0  0  0
  -28.3084    1.4970   -6.7797 F   0  0  0  0  0  0  0  0  0  0  0  0
  -27.9433    0.7129   -4.7897 F   0  0  0  0  0  0  0  0  0  0  0  0
  -22.0694   -0.5379  -14.3626 O   0  0  0  0  0  0  0  0  0  0  0  0
  -21.7613    0.8200  -14.4243 C   0  0  0  0  0  0  0  0  0  0  0  0
  -20.5617    1.1663  -15.0212 C   0  0  0  0  0  0  0  0  0  0  0  0
  -20.2693    2.5148  -15.0471 C   0  0  0  0  0  0  0  0  0  0  0  0
  -21.1059    3.4220  -14.5295 N   0  0  0  0  0  0  0  0  0  0  0  0
  -22.2258    2.9834  -13.9553 C   0  0  0  0  0  0  0  0  0  0  0  0
  -22.5996    1.7068  -13.8637 N   0  0  0  0  0  0  0  0  0  0  0  0
  -19.0533    2.9496  -15.6178 N   0  0  0  0  0  0  0  0  0  0  0  0
  -17.8105    2.5945  -15.1287 C   0  0  0  0  0  0  0  0  0  0  0  0
  -17.5763    1.9153  -14.1395 O   0  0  0  0  0  0  0  0  0  0  0  0
  -19.1003    3.5355  -16.4365 H   0  0  0  0  0  0  0  0  0  0  0  0
  -16.6521    3.1062  -15.9305 C   0  0  0  0  0  0  0  0  0  0  0  0
  -15.7598    2.1143  -16.6501 C   0  0  0  0  0  0  0  0  0  0  0  0
  -15.2403    2.8443  -15.4460 C   0  0  0  0  0  0  0  0  0  0  0  0
 21 22  1  0  0  0
 22 23  1  0  0  0
 22 24  1  0  0  0
 22 14  1  0  0  0
 14 15  1  0  0  0
 14 20  2  0  0  0
 15 16  2  0  0  0
 16 17  1  0  0  0
 17 18  1  0  0  0
 17 19  2  0  0  0
 19  8  1  0  0  0
 19 20  1  0  0  0
  8  9  1  0  0  0
  8 12  1  0  0  0
  9 10  2  0  0  0
  9 11  1  0  0  0
 11  1  1  0  0  0
 11 13  1  0  0  0
  1  2  1  0  0  0
  1  6  2  0  0  0
  2  3  2  0  0  0
  3  4  1  0  0  0
  4 25  1  0  0  0
  4  5  2  0  0  0
 25 26  1  0  0  0
 26 27  1  0  0  0
 26 31  2  0  0  0
 27 28  2  0  0  0
 28 32  1  0  0  0
 28 29  1  0  0  0
 32 33  1  0  0  0
 32 35  1  0  0  0
 33 34  2  0  0  0
 33 36  1  0  0  0
 36 37  1  0  0  0
 36 38  1  0  0  0
 37 38  1  0  0  0
 29 30  2  0  0  0
 30 31  1  0  0  0
  5  6  1  0  0  0
  6  7  1  0  0  0
M  END
> <minimizedAffinity>
-11.86240

$$$$
