CHEMBL3660269


 39 43  0  0  0  0  0  0  0  0999 V2000
  -26.5205  -11.6501   -8.3292 C   0  0  0  0  0  0  0  0  0  0  0  0
  -26.4423  -10.4410   -9.0298 C   0  0  0  0  0  0  0  0  0  0  0  0
  -27.6012   -9.7830   -9.4409 C   0  0  0  0  0  0  0  0  0  0  0  0
  -28.8501  -10.3588   -9.2056 C   0  0  0  0  0  0  0  0  0  0  0  0
  -28.9305  -11.5660   -8.5041 C   0  0  0  0  0  0  0  0  0  0  0  0
  -27.7672  -12.2273   -8.0880 C   0  0  0  0  0  0  0  0  0  0  0  0
  -23.7442  -12.4573   -6.1470 N   0  0  0  0  0  0  0  0  0  0  0  0
  -24.9526  -11.8886   -6.5095 C   0  0  0  0  0  0  0  0  0  0  0  0
  -25.6587  -11.1980   -5.7832 O   0  0  0  0  0  0  0  0  0  0  0  0
  -25.3468  -12.2457   -7.7992 N   0  0  0  0  0  0  0  0  0  0  0  0
  -23.3571  -13.1484   -6.7716 H   0  0  0  0  0  0  0  0  0  0  0  0
  -25.2086  -13.2211   -8.0189 H   0  0  0  0  0  0  0  0  0  0  0  0
  -24.2036  -12.4242   -1.2191 C   0  0  0  0  0  0  0  0  0  0  0  0
  -23.3569  -12.2451   -2.4457 C   0  0  0  0  0  0  0  0  0  0  0  0
  -22.0216  -11.8517   -2.3143 C   0  0  0  0  0  0  0  0  0  0  0  0
  -21.2234  -11.7210   -3.4428 C   0  0  0  0  0  0  0  0  0  0  0  0
  -21.7554  -11.9618   -4.7067 C   0  0  0  0  0  0  0  0  0  0  0  0
  -20.8802  -11.9515   -5.7194 F   0  0  0  0  0  0  0  0  0  0  0  0
  -23.1091  -12.2898   -4.8843 C   0  0  0  0  0  0  0  0  0  0  0  0
  -23.8941  -12.4630   -3.7312 C   0  0  0  0  0  0  0  0  0  0  0  0
  -30.0477   -9.7805   -9.5674 O   0  0  0  0  0  0  0  0  0  0  0  0
  -30.8826   -9.2826   -8.5903 C   0  0  0  0  0  0  0  0  0  0  0  0
  -32.1728   -9.7462   -8.3595 C   0  0  0  0  0  0  0  0  0  0  0  0
  -32.9157   -9.1339   -7.3659 C   0  0  0  0  0  0  0  0  0  0  0  0
  -32.4474   -8.1451   -6.5738 N   0  0  0  0  0  0  0  0  0  0  0  0
  -31.1647   -7.7578   -6.7776 C   0  0  0  0  0  0  0  0  0  0  0  0
  -30.3526   -8.2980   -7.7658 C   0  0  0  0  0  0  0  0  0  0  0  0
  -30.6944   -6.7185   -5.8714 C   0  0  0  0  0  0  0  0  0  0  0  0
  -29.5886   -5.8886   -5.9278 C   0  0  0  0  0  0  0  0  0  0  0  0
  -29.5786   -5.0507   -4.7769 C   0  0  0  0  0  0  0  0  0  0  0  0
  -30.6964   -5.3995   -4.0388 C   0  0  0  0  0  0  0  0  0  0  0  0
  -31.3496   -6.4085   -4.6998 N   0  0  0  0  0  0  0  0  0  0  0  0
  -32.1839   -6.8925   -4.3901 H   0  0  0  0  0  0  0  0  0  0  0  0
  -28.5514   -4.0711   -4.4353 C   0  0  0  0  0  0  0  0  0  0  0  0
  -27.4348   -4.4173   -4.0594 O   0  0  0  0  0  0  0  0  0  0  0  0
  -28.9190   -2.7477   -4.5802 N   0  0  0  0  0  0  0  0  0  0  0  0
  -28.0103   -1.6165   -4.4287 C   0  0  0  0  0  0  0  0  0  0  0  0
  -28.4699   -1.1291   -5.7985 C   0  0  0  0  0  0  0  0  0  0  0  0
  -29.5785   -2.1803   -5.7595 C   0  0  0  0  0  0  0  0  0  0  0  0
 13 14  1  0  0  0
 14 15  1  0  0  0
 14 20  2  0  0  0
 15 16  2  0  0  0
 16 17  1  0  0  0
 17 18  1  0  0  0
 17 19  2  0  0  0
 19  7  1  0  0  0
 19 20  1  0  0  0
  7  8  1  0  0  0
  7 11  1  0  0  0
  8  9  2  0  0  0
  8 10  1  0  0  0
 10  1  1  0  0  0
 10 12  1  0  0  0
  1  2  1  0  0  0
  1  6  2  0  0  0
  2  3  2  0  0  0
  3  4  1  0  0  0
  4 21  1  0  0  0
  4  5  2  0  0  0
 21 22  1  0  0  0
 22 23  1  0  0  0
 22 27  2  0  0  0
 23 24  2  0  0  0
 24 25  1  0  0  0
 25 26  2  0  0  0
 26 28  1  0  0  0
 26 27  1  0  0  0
 28 29  2  0  0  0
 28 32  1  0  0  0
 29 30  1  0  0  0
 30 34  1  0  0  0
 30 31  2  0  0  0
 34 35  2  0  0  0
 34 36  1  0  0  0
 36 37  1  0  0  0
 36 39  1  0  0  0
 37 38  1  0  0  0
 38 39  1  0  0  0
 31 32  1  0  0  0
 32 33  1  0  0  0
  5  6  1  0  0  0
M  END
> <minimizedAffinity>
-9.10480

$$$$
