CHEMBL2088104


 26 28  0  0  0  0  0  0  0  0999 V2000
  -27.5345   -2.5079   -8.8525 C   0  0  0  0  0  0  0  0  0  0  0  0
  -27.4133   -1.2490   -8.4256 N   0  0  0  0  0  0  0  0  0  0  0  0
  -27.8503   -0.9814   -7.1791 C   0  0  0  0  0  0  0  0  0  0  0  0
  -28.4711   -1.9097   -6.3751 C   0  0  0  0  0  0  0  0  0  0  0  0
  -29.0914   -1.4160   -4.6610 Br  0  0  0  0  0  0  0  0  0  0  0  0
  -28.6230   -3.1759   -6.9097 C   0  0  0  0  0  0  0  0  0  0  0  0
  -28.1216   -3.4695   -8.1314 N   0  0  0  0  0  0  0  0  0  0  0  0
  -27.0722   -2.7822  -10.1321 N   0  0  0  0  0  0  0  0  0  0  0  0
  -26.0739   -2.9499  -10.0386 H   0  0  0  0  0  0  0  0  0  0  0  0
  -27.3533   -1.7377  -11.1065 C   0  0  0  0  0  0  0  0  0  0  0  0
  -22.6063   -0.4331  -13.9988 C   0  0  0  0  0  0  0  0  0  0  0  0
  -23.8499   -0.7767  -13.2367 C   0  0  0  0  0  0  0  0  0  0  0  0
  -23.9428   -0.5627  -11.8693 C   0  0  0  0  0  0  0  0  0  0  0  0
  -25.0522   -0.8565  -11.1497 N   0  0  0  0  0  0  0  0  0  0  0  0
  -26.0921   -1.3758  -11.8555 C   0  0  0  0  0  0  0  0  0  0  0  0
  -25.9906   -1.6068  -13.2208 C   0  0  0  0  0  0  0  0  0  0  0  0
  -24.8798   -1.3081  -13.9394 N   0  0  0  0  0  0  0  0  0  0  0  0
  -29.4072   -4.1418   -6.2494 N   0  0  0  0  0  0  0  0  0  0  0  0
  -30.4047   -4.0424   -6.4040 H   0  0  0  0  0  0  0  0  0  0  0  0
  -29.0295   -5.1355   -5.4193 C   0  0  0  0  0  0  0  0  0  0  0  0
  -28.5774   -6.4146   -5.8268 C   0  0  0  0  0  0  0  0  0  0  0  0
  -28.5081   -7.1690   -4.6819 C   0  0  0  0  0  0  0  0  0  0  0  0
  -28.2649   -8.6128   -4.4890 C   0  0  0  0  0  0  0  0  0  0  0  0
  -28.7810   -6.2989   -3.6651 N   0  0  0  0  0  0  0  0  0  0  0  0
  -29.1392   -5.0715   -4.0909 N   0  0  0  0  0  0  0  0  0  0  0  0
  -28.7926   -6.4849   -2.6680 H   0  0  0  0  0  0  0  0  0  0  0  0
 11 12  1  0  0  0
 12 13  1  0  0  0
 12 17  2  0  0  0
 13 14  2  0  0  0
 14 15  1  0  0  0
 15 10  1  0  0  0
 15 16  2  0  0  0
 10  8  1  0  0  0
  8  1  1  0  0  0
  8  9  1  0  0  0
  1  2  1  0  0  0
  1  7  2  0  0  0
  2  3  2  0  0  0
  3  4  1  0  0  0
  4  5  1  0  0  0
  4  6  2  0  0  0
  6 18  1  0  0  0
  6  7  1  0  0  0
 18 20  1  0  0  0
 18 19  1  0  0  0
 20 21  1  0  0  0
 20 25  2  0  0  0
 21 22  2  0  0  0
 22 23  1  0  0  0
 22 24  1  0  0  0
 24 25  1  0  0  0
 24 26  1  0  0  0
 16 17  1  0  0  0
M  END
> <minimizedAffinity>
-8.04195

$$$$
