CHEMBL231127


 37 41  0  0  0  0  0  0  0  0999 V2000
  -13.4351    2.4930  -14.9224 C   0  0  0  0  0  0  0  0  0  0  0  0
  -13.8070    1.5458  -15.8778 C   0  0  0  0  0  0  0  0  0  0  0  0
  -13.7328    0.1832  -15.5899 C   0  0  0  0  0  0  0  0  0  0  0  0
  -13.2429   -0.2692  -14.3549 C   0  0  0  0  0  0  0  0  0  0  0  0
  -12.7423    0.6851  -13.4608 C   0  0  0  0  0  0  0  0  0  0  0  0
  -12.8506    2.0599  -13.7328 C   0  0  0  0  0  0  0  0  0  0  0  0
  -13.2858   -1.7073  -14.0373 C   0  0  0  0  0  0  0  0  0  0  0  0
  -12.3683   -2.5361  -14.6503 C   0  0  0  0  0  0  0  0  0  0  0  0
  -12.6269   -4.1691  -14.3323 S   0  0  0  0  0  0  0  0  0  0  0  0
  -13.8752   -3.8485  -13.1740 C   0  0  0  0  0  0  0  0  0  0  0  0
  -14.5456   -4.8041  -12.3604 C   0  0  0  0  0  0  0  0  0  0  0  0
  -15.5665   -4.2535  -11.5930 C   0  0  0  0  0  0  0  0  0  0  0  0
  -15.9452   -2.9651  -11.5910 N   0  0  0  0  0  0  0  0  0  0  0  0
  -15.2979   -2.0705  -12.3593 C   0  0  0  0  0  0  0  0  0  0  0  0
  -15.8258   -0.7881  -12.2849 N   0  0  0  0  0  0  0  0  0  0  0  0
  -14.1966   -2.4707  -13.1667 C   0  0  0  0  0  0  0  0  0  0  0  0
  -16.7213   -0.8305  -11.8087 H   0  0  0  0  0  0  0  0  0  0  0  0
  -15.8410   -0.3054  -13.1751 H   0  0  0  0  0  0  0  0  0  0  0  0
  -14.2261   -6.2435  -12.3049 C   0  0  0  0  0  0  0  0  0  0  0  0
  -14.8857   -7.2253  -13.0301 C   0  0  0  0  0  0  0  0  0  0  0  0
  -14.6035   -8.5485  -12.9946 N   0  0  0  0  0  0  0  0  0  0  0  0
  -13.5855   -8.9037  -12.2043 C   0  0  0  0  0  0  0  0  0  0  0  0
  -12.8409   -8.0669  -11.4723 N   0  0  0  0  0  0  0  0  0  0  0  0
  -13.1863   -6.7602  -11.5415 C   0  0  0  0  0  0  0  0  0  0  0  0
  -13.0997    6.0532  -15.5438 N   0  0  0  0  0  0  0  0  0  0  0  0
  -12.6720    4.7433  -15.3849 C   0  0  0  0  0  0  0  0  0  0  0  0
  -11.5064    4.3788  -15.5040 O   0  0  0  0  0  0  0  0  0  0  0  0
  -13.7113    3.8722  -15.1133 N   0  0  0  0  0  0  0  0  0  0  0  0
  -14.0267    6.2687  -15.2083 H   0  0  0  0  0  0  0  0  0  0  0  0
  -14.5860    4.0964  -15.5600 H   0  0  0  0  0  0  0  0  0  0  0  0
  -11.2526    8.7523  -19.2619 C   0  0  0  0  0  0  0  0  0  0  0  0
  -11.3783    8.4706  -17.7941 C   0  0  0  0  0  0  0  0  0  0  0  0
  -10.6972    9.2736  -16.8733 C   0  0  0  0  0  0  0  0  0  0  0  0
  -10.8022    9.0160  -15.5132 C   0  0  0  0  0  0  0  0  0  0  0  0
  -11.5881    7.9567  -15.0636 C   0  0  0  0  0  0  0  0  0  0  0  0
  -12.2912    7.1424  -15.9579 C   0  0  0  0  0  0  0  0  0  0  0  0
  -12.1772    7.4087  -17.3308 C   0  0  0  0  0  0  0  0  0  0  0  0
 31 32  1  0  0  0
 32 33  1  0  0  0
 32 37  2  0  0  0
 33 34  2  0  0  0
 34 35  1  0  0  0
 35 36  2  0  0  0
 36 25  1  0  0  0
 36 37  1  0  0  0
 25 26  1  0  0  0
 25 29  1  0  0  0
 26 27  2  0  0  0
 26 28  1  0  0  0
 28  1  1  0  0  0
 28 30  1  0  0  0
  1  2  1  0  0  0
  1  6  2  0  0  0
  2  3  2  0  0  0
  3  4  1  0  0  0
  4  7  1  0  0  0
  4  5  2  0  0  0
  7  8  2  0  0  0
  7 16  1  0  0  0
  8  9  1  0  0  0
  9 10  1  0  0  0
 10 11  1  0  0  0
 10 16  2  0  0  0
 11 19  1  0  0  0
 11 12  2  0  0  0
 19 20  1  0  0  0
 19 24  2  0  0  0
 20 21  2  0  0  0
 21 22  1  0  0  0
 22 23  2  0  0  0
 23 24  1  0  0  0
 12 13  1  0  0  0
 13 14  2  0  0  0
 14 15  1  0  0  0
 14 16  1  0  0  0
 15 17  1  0  0  0
 15 18  1  0  0  0
  5  6  1  0  0  0
M  END
> <minimizedAffinity>
-7.06763

$$$$
