CHEMBL1681950


 34 36  0  0  0  0  0  0  0  0999 V2000
  -28.3592   -3.5826   -6.0198 C   0  0  0  0  0  0  0  0  0  0  0  0
  -28.6160   -4.2605   -7.2088 C   0  0  0  0  0  0  0  0  0  0  0  0
  -28.5052   -3.6071   -8.4341 C   0  0  0  0  0  0  0  0  0  0  0  0
  -28.1655   -2.2544   -8.5070 C   0  0  0  0  0  0  0  0  0  0  0  0
  -28.0242   -1.5499   -7.2957 C   0  0  0  0  0  0  0  0  0  0  0  0
  -27.6766    0.1466   -7.2957 Cl  0  0  0  0  0  0  0  0  0  0  0  0
  -28.1189   -2.2087   -6.0557 C   0  0  0  0  0  0  0  0  0  0  0  0
  -27.9422   -1.6043   -9.7544 N   0  0  0  0  0  0  0  0  0  0  0  0
  -26.7467   -1.6158  -10.4528 C   0  0  0  0  0  0  0  0  0  0  0  0
  -25.7425   -2.2333  -10.1129 O   0  0  0  0  0  0  0  0  0  0  0  0
  -26.7693   -0.7995  -11.5715 N   0  0  0  0  0  0  0  0  0  0  0  0
  -28.6749   -0.9853  -10.0753 H   0  0  0  0  0  0  0  0  0  0  0  0
  -27.3193    0.0443  -11.4752 H   0  0  0  0  0  0  0  0  0  0  0  0
  -25.5963   -0.6502  -12.3607 C   0  0  0  0  0  0  0  0  0  0  0  0
  -24.5362    0.1788  -11.9768 C   0  0  0  0  0  0  0  0  0  0  0  0
  -23.4447    0.3662  -12.8307 C   0  0  0  0  0  0  0  0  0  0  0  0
  -23.4086   -0.2675  -14.0733 C   0  0  0  0  0  0  0  0  0  0  0  0
  -24.4519   -1.1124  -14.4519 C   0  0  0  0  0  0  0  0  0  0  0  0
  -25.5244   -1.3150  -13.5858 C   0  0  0  0  0  0  0  0  0  0  0  0
  -26.5402   -2.1019  -13.9741 F   0  0  0  0  0  0  0  0  0  0  0  0
  -28.3655   -4.2363   -4.8020 O   0  0  0  0  0  0  0  0  0  0  0  0
  -30.4602   -4.9878   -3.9006 C   0  0  0  0  0  0  0  0  0  0  0  0
  -31.5423   -4.6847   -3.0791 C   0  0  0  0  0  0  0  0  0  0  0  0
  -32.5683   -5.5881   -2.8088 N   0  0  0  0  0  0  0  0  0  0  0  0
  -31.6250   -3.5384   -2.3828 N   0  0  0  0  0  0  0  0  0  0  0  0
  -30.6219   -2.6695   -2.5376 C   0  0  0  0  0  0  0  0  0  0  0  0
  -29.5607   -2.8393   -3.3287 N   0  0  0  0  0  0  0  0  0  0  0  0
  -29.4795   -4.0211   -3.9830 C   0  0  0  0  0  0  0  0  0  0  0  0
  -32.8657   -6.0862   -3.6480 H   0  0  0  0  0  0  0  0  0  0  0  0
  -33.3141   -5.1216   -2.3043 H   0  0  0  0  0  0  0  0  0  0  0  0
  -31.0863   -6.4646   -5.7048 N   0  0  0  0  0  0  0  0  0  0  0  0
  -30.3775   -6.2539   -4.6381 C   0  0  0  0  0  0  0  0  0  0  0  0
  -30.4505   -7.6320   -7.5672 C   0  0  0  0  0  0  0  0  0  0  0  0
  -30.8330   -7.7506   -6.1994 O   0  0  0  0  0  0  0  0  0  0  0  0
 33 34  1  0  0  0
 34 31  1  0  0  0
 31 32  2  0  0  0
 32 22  1  0  0  0
 22 23  1  0  0  0
 22 28  2  0  0  0
 23 24  1  0  0  0
 23 25  2  0  0  0
 24 29  1  0  0  0
 24 30  1  0  0  0
 25 26  1  0  0  0
 26 27  2  0  0  0
 27 28  1  0  0  0
 28 21  1  0  0  0
 21  1  1  0  0  0
  1  2  1  0  0  0
  1  7  2  0  0  0
  2  3  2  0  0  0
  3  4  1  0  0  0
  4  8  1  0  0  0
  4  5  2  0  0  0
  8  9  1  0  0  0
  8 12  1  0  0  0
  9 10  2  0  0  0
  9 11  1  0  0  0
 11 14  1  0  0  0
 11 13  1  0  0  0
 14 15  1  0  0  0
 14 19  2  0  0  0
 15 16  2  0  0  0
 16 17  1  0  0  0
 17 18  2  0  0  0
 18 19  1  0  0  0
 19 20  1  0  0  0
  5  6  1  0  0  0
  5  7  1  0  0  0
M  END
> <minimizedAffinity>
-8.24837

$$$$
