CHEMBL189305


 38 41  0  0  0  0  0  0  0  0999 V2000
  -13.9885   -5.4997  -10.2528 C   0  0  0  0  0  0  0  0  0  0  0  0
  -14.2998   -5.5490  -11.6875 N   0  0  0  0  0  0  0  0  0  0  0  0
  -14.6568   -4.3338  -12.2983 C   0  0  0  0  0  0  0  0  0  0  0  0
  -13.8201   -3.2167  -12.2656 C   0  0  0  0  0  0  0  0  0  0  0  0
  -14.1646   -2.0371  -12.9241 C   0  0  0  0  0  0  0  0  0  0  0  0
  -15.3586   -1.9366  -13.6339 C   0  0  0  0  0  0  0  0  0  0  0  0
  -16.2160   -3.0397  -13.6646 C   0  0  0  0  0  0  0  0  0  0  0  0
  -15.8703   -4.2207  -12.9970 C   0  0  0  0  0  0  0  0  0  0  0  0
  -15.7519   -0.7699  -14.3193 N   0  0  0  0  0  0  0  0  0  0  0  0
  -16.2311    0.3999  -13.7481 C   0  0  0  0  0  0  0  0  0  0  0  0
  -16.3448    0.6369  -12.5481 O   0  0  0  0  0  0  0  0  0  0  0  0
  -15.7142   -0.8096  -15.3294 H   0  0  0  0  0  0  0  0  0  0  0  0
  -16.6593    1.4365  -14.7712 C   0  0  0  0  0  0  0  0  0  0  0  0
  -18.1461    1.6863  -14.7316 C   0  0  0  0  0  0  0  0  0  0  0  0
  -19.0466    0.6616  -15.0584 C   0  0  0  0  0  0  0  0  0  0  0  0
  -20.4204    0.8959  -15.0518 C   0  0  0  0  0  0  0  0  0  0  0  0
  -20.9085    2.1537  -14.7076 C   0  0  0  0  0  0  0  0  0  0  0  0
  -20.0254    3.1768  -14.3649 C   0  0  0  0  0  0  0  0  0  0  0  0
  -18.6454    2.9437  -14.3750 C   0  0  0  0  0  0  0  0  0  0  0  0
  -13.6950   -6.6556  -12.3384 C   0  0  0  0  0  0  0  0  0  0  0  0
  -13.6879   -7.9129  -11.7666 C   0  0  0  0  0  0  0  0  0  0  0  0
  -13.0658   -8.9178  -12.4720 C   0  0  0  0  0  0  0  0  0  0  0  0
  -12.4706   -8.7336  -13.6604 N   0  0  0  0  0  0  0  0  0  0  0  0
  -12.5157   -7.4907  -14.1520 C   0  0  0  0  0  0  0  0  0  0  0  0
  -13.1137   -6.4600  -13.5342 N   0  0  0  0  0  0  0  0  0  0  0  0
  -11.8651   -7.2763  -15.3729 N   0  0  0  0  0  0  0  0  0  0  0  0
  -11.3074   -6.4383  -15.2743 H   0  0  0  0  0  0  0  0  0  0  0  0
  -12.4536   -7.4148  -16.6439 C   0  0  0  0  0  0  0  0  0  0  0  0
  -13.2157   -8.5484  -16.9234 C   0  0  0  0  0  0  0  0  0  0  0  0
  -13.8174   -8.7051  -18.1732 C   0  0  0  0  0  0  0  0  0  0  0  0
  -13.6409   -7.7393  -19.1653 C   0  0  0  0  0  0  0  0  0  0  0  0
  -12.8434   -6.6146  -18.9271 C   0  0  0  0  0  0  0  0  0  0  0  0
  -12.2485   -6.4760  -17.6652 C   0  0  0  0  0  0  0  0  0  0  0  0
  -12.5778   -5.5939  -20.0007 C   0  0  0  0  0  0  0  0  0  0  0  0
  -13.8476   -4.3378  -20.0840 S   0  0  0  0  0  0  0  0  0  0  0  0
  -13.4682   -3.2095  -18.7712 C   0  0  0  0  0  0  0  0  0  0  0  0
  -13.6431   -3.6114  -21.3262 O   0  0  0  0  0  0  0  0  0  0  0  0
  -15.1398   -4.9358  -19.8029 O   0  0  0  0  0  0  0  0  0  0  0  0
  1  2  1  0  0  0
  2  3  1  0  0  0
  2 20  1  0  0  0
  3  4  1  0  0  0
  3  8  2  0  0  0
  4  5  2  0  0  0
  5  6  1  0  0  0
  6  9  1  0  0  0
  6  7  2  0  0  0
  9 10  1  0  0  0
  9 12  1  0  0  0
 10 11  2  0  0  0
 10 13  1  0  0  0
 13 14  1  0  0  0
 14 15  1  0  0  0
 14 19  2  0  0  0
 15 16  2  0  0  0
 16 17  1  0  0  0
 17 18  2  0  0  0
 18 19  1  0  0  0
  7  8  1  0  0  0
 20 21  1  0  0  0
 20 25  2  0  0  0
 21 22  2  0  0  0
 22 23  1  0  0  0
 23 24  2  0  0  0
 24 26  1  0  0  0
 24 25  1  0  0  0
 26 28  1  0  0  0
 26 27  1  0  0  0
 28 29  1  0  0  0
 28 33  2  0  0  0
 29 30  2  0  0  0
 30 31  1  0  0  0
 31 32  2  0  0  0
 32 34  1  0  0  0
 32 33  1  0  0  0
 34 35  1  0  0  0
 35 36  1  0  0  0
 35 37  2  0  0  0
 35 38  2  0  0  0
M  END
> <minimizedAffinity>
-8.80877

$$$$
