CHEMBL1203982


 38 42  0  0  0  0  0  0  0  0999 V2000
  -19.2082    2.4237  -14.9063 C   0  0  0  0  0  0  0  0  0  0  0  0
  -18.5158    3.2705  -15.8124 C   0  0  0  0  0  0  0  0  0  0  0  0
  -17.1444    3.0894  -16.0785 C   0  0  0  0  0  0  0  0  0  0  0  0
  -16.4760    2.0356  -15.4537 C   0  0  0  0  0  0  0  0  0  0  0  0
  -17.1441    1.2100  -14.5654 C   0  0  0  0  0  0  0  0  0  0  0  0
  -18.4890    1.3930  -14.2533 C   0  0  0  0  0  0  0  0  0  0  0  0
  -16.3110    0.1823  -14.0861 N   0  0  0  0  0  0  0  0  0  0  0  0
  -15.1151    0.3113  -14.6964 C   0  0  0  0  0  0  0  0  0  0  0  0
  -14.1735   -0.4336  -14.4785 O   0  0  0  0  0  0  0  0  0  0  0  0
  -15.1034    1.4990  -15.5836 C   0  0  0  0  0  0  0  0  0  0  0  0
  -14.0479    1.9464  -16.3120 C   0  0  0  0  0  0  0  0  0  0  0  0
  -16.5722   -0.5459  -13.4072 H   0  0  0  0  0  0  0  0  0  0  0  0
  -14.0575    3.2278  -17.0332 C   0  0  0  0  0  0  0  0  0  0  0  0
  -13.5744    4.3694  -16.3821 C   0  0  0  0  0  0  0  0  0  0  0  0
  -13.5323    5.5923  -17.0525 C   0  0  0  0  0  0  0  0  0  0  0  0
  -13.9646    5.6790  -18.3788 C   0  0  0  0  0  0  0  0  0  0  0  0
  -14.4442    4.5408  -19.0353 C   0  0  0  0  0  0  0  0  0  0  0  0
  -14.4906    3.3125  -18.3675 C   0  0  0  0  0  0  0  0  0  0  0  0
  -22.8158    1.6833  -13.8150 C   0  0  0  0  0  0  0  0  0  0  0  0
  -21.4020    1.5498  -14.1009 N   0  0  0  0  0  0  0  0  0  0  0  0
  -20.6722    2.5638  -14.6483 C   0  0  0  0  0  0  0  0  0  0  0  0
  -21.2119    3.6383  -14.8756 O   0  0  0  0  0  0  0  0  0  0  0  0
  -20.9466    0.6722  -13.8153 H   0  0  0  0  0  0  0  0  0  0  0  0
  -12.8479    1.1770  -16.3840 N   0  0  0  0  0  0  0  0  0  0  0  0
  -12.0600    1.4321  -15.7733 H   0  0  0  0  0  0  0  0  0  0  0  0
  -12.6563    0.2041  -17.4206 C   0  0  0  0  0  0  0  0  0  0  0  0
  -13.7082   -0.1846  -18.2808 C   0  0  0  0  0  0  0  0  0  0  0  0
  -13.5153   -1.1657  -19.2592 C   0  0  0  0  0  0  0  0  0  0  0  0
  -12.2696   -1.7887  -19.3951 C   0  0  0  0  0  0  0  0  0  0  0  0
  -11.2047   -1.3771  -18.5722 C   0  0  0  0  0  0  0  0  0  0  0  0
  -11.3962   -0.3879  -17.5978 C   0  0  0  0  0  0  0  0  0  0  0  0
  -12.0978   -2.9558  -20.3438 C   0  0  0  0  0  0  0  0  0  0  0  0
  -13.1608   -3.9872  -20.2799 N   0  0  0  0  0  0  0  0  0  0  0  0
  -13.0696   -4.8902  -21.4531 C   0  0  0  0  0  0  0  0  0  0  0  0
  -14.0486   -6.0697  -21.3394 C   0  0  0  0  0  0  0  0  0  0  0  0
  -13.7622   -6.8571  -20.0621 C   0  0  0  0  0  0  0  0  0  0  0  0
  -13.9338   -5.9227  -18.8692 C   0  0  0  0  0  0  0  0  0  0  0  0
  -12.9729   -4.7363  -19.0065 C   0  0  0  0  0  0  0  0  0  0  0  0
 19 20  1  0  0  0
 20 21  1  0  0  0
 20 23  1  0  0  0
 21 22  2  0  0  0
 21  1  1  0  0  0
  1  2  1  0  0  0
  1  6  2  0  0  0
  2  3  2  0  0  0
  3  4  1  0  0  0
  4  5  2  0  0  0
  4 10  1  0  0  0
  5  6  1  0  0  0
  5  7  1  0  0  0
  7  8  1  0  0  0
  7 12  1  0  0  0
  8  9  2  0  0  0
  8 10  1  0  0  0
 10 11  2  0  0  0
 11 24  1  0  0  0
 11 13  1  0  0  0
 24 26  1  0  0  0
 24 25  1  0  0  0
 26 27  1  0  0  0
 26 31  2  0  0  0
 27 28  2  0  0  0
 28 29  1  0  0  0
 29 32  1  0  0  0
 29 30  2  0  0  0
 32 33  1  0  0  0
 33 34  1  0  0  0
 33 38  1  0  0  0
 34 35  1  0  0  0
 35 36  1  0  0  0
 36 37  1  0  0  0
 37 38  1  0  0  0
 30 31  1  0  0  0
 13 14  1  0  0  0
 13 18  2  0  0  0
 14 15  2  0  0  0
 15 16  1  0  0  0
 16 17  2  0  0  0
 17 18  1  0  0  0
M  END
> <minimizedAffinity>
-7.69754

$$$$
