CHEMBL3681314


 40 45  0  0  0  0  0  0  0  0999 V2000
  -28.9576   -2.9381   -4.9909 C   0  0  0  0  0  0  0  0  0  0  0  0
  -28.9537   -2.3206   -3.9272 O   0  0  0  0  0  0  0  0  0  0  0  0
  -29.4238   -4.3045   -5.0653 C   0  0  0  0  0  0  0  0  0  0  0  0
  -28.5897   -5.3868   -4.8399 C   0  0  0  0  0  0  0  0  0  0  0  0
  -29.4315   -6.4919   -4.6955 C   0  0  0  0  0  0  0  0  0  0  0  0
  -29.2132   -7.8304   -4.3945 C   0  0  0  0  0  0  0  0  0  0  0  0
  -28.9683   -8.3863   -5.6264 C   0  0  0  0  0  0  0  0  0  0  0  0
  -29.9604   -8.2960   -6.6156 C   0  0  0  0  0  0  0  0  0  0  0  0
  -30.9132   -7.2361   -6.4927 C   0  0  0  0  0  0  0  0  0  0  0  0
  -30.4650   -6.2139   -5.6002 C   0  0  0  0  0  0  0  0  0  0  0  0
  -30.6688   -4.8543   -5.3963 N   0  0  0  0  0  0  0  0  0  0  0  0
  -31.5027   -4.3204   -5.6024 H   0  0  0  0  0  0  0  0  0  0  0  0
  -29.8668   -9.4207   -7.6346 C   0  0  0  0  0  0  0  0  0  0  0  0
  -29.3379   -9.2354   -8.9941 N   0  0  0  0  0  0  0  0  0  0  0  0
  -29.4307  -10.4934   -9.7750 C   0  0  0  0  0  0  0  0  0  0  0  0
  -28.3193  -11.5043   -9.4757 C   0  0  0  0  0  0  0  0  0  0  0  0
  -26.9627  -10.8620   -9.6560 C   0  0  0  0  0  0  0  0  0  0  0  0
  -25.9982  -11.7156   -9.2216 F   0  0  0  0  0  0  0  0  0  0  0  0
  -26.7312  -10.6819  -10.9838 F   0  0  0  0  0  0  0  0  0  0  0  0
  -26.8231   -9.5393   -8.9321 C   0  0  0  0  0  0  0  0  0  0  0  0
  -28.0214   -8.6303   -9.1815 C   0  0  0  0  0  0  0  0  0  0  0  0
  -27.8400   -1.6732   -8.2140 N   0  0  0  0  0  0  0  0  0  0  0  0
  -27.8478   -0.5287   -7.4871 N   0  0  0  0  0  0  0  0  0  0  0  0
  -28.3700   -0.8882   -6.3072 C   0  0  0  0  0  0  0  0  0  0  0  0
  -28.5359   -2.2840   -6.1954 C   0  0  0  0  0  0  0  0  0  0  0  0
  -28.2570   -2.7825   -7.4630 C   0  0  0  0  0  0  0  0  0  0  0  0
  -28.2965   -4.0613   -7.9159 N   0  0  0  0  0  0  0  0  0  0  0  0
  -28.7968   -4.8058   -7.4288 H   0  0  0  0  0  0  0  0  0  0  0  0
  -27.9705   -4.3461   -8.8377 H   0  0  0  0  0  0  0  0  0  0  0  0
  -23.3168   -1.0203  -13.9233 C   0  0  0  0  0  0  0  0  0  0  0  0
  -24.4006   -1.1490  -12.9244 C   0  0  0  0  0  0  0  0  0  0  0  0
  -24.2571   -1.2368  -11.6174 N   0  0  0  0  0  0  0  0  0  0  0  0
  -25.5263   -1.3857  -11.1164 C   0  0  0  0  0  0  0  0  0  0  0  0
  -25.9590   -1.5329   -9.7935 C   0  0  0  0  0  0  0  0  0  0  0  0
  -27.3205   -1.6546   -9.5431 C   0  0  0  0  0  0  0  0  0  0  0  0
  -28.2434   -1.7095  -10.6009 C   0  0  0  0  0  0  0  0  0  0  0  0
  -27.8374   -1.5523  -11.9327 C   0  0  0  0  0  0  0  0  0  0  0  0
  -26.4671   -1.3826  -12.1369 C   0  0  0  0  0  0  0  0  0  0  0  0
  -25.7240   -1.2045  -13.2787 N   0  0  0  0  0  0  0  0  0  0  0  0
  -26.0867   -1.1573  -14.2212 H   0  0  0  0  0  0  0  0  0  0  0  0
 30 31  1  0  0  0
 31 32  2  0  0  0
 31 39  1  0  0  0
 32 33  1  0  0  0
 33 34  1  0  0  0
 33 38  2  0  0  0
 34 35  2  0  0  0
 35 22  1  0  0  0
 35 36  1  0  0  0
 22 23  1  0  0  0
 22 26  1  0  0  0
 23 24  2  0  0  0
 24 25  1  0  0  0
 25  1  1  0  0  0
 25 26  2  0  0  0
  1  2  2  0  0  0
  1  3  1  0  0  0
  3  4  2  0  0  0
  3 11  1  0  0  0
  4  5  1  0  0  0
  5  6  1  0  0  0
  5 10  2  0  0  0
  6  7  2  0  0  0
  7  8  1  0  0  0
  8 13  1  0  0  0
  8  9  2  0  0  0
 13 14  1  0  0  0
 14 15  1  0  0  0
 14 21  1  0  0  0
 15 16  1  0  0  0
 16 17  1  0  0  0
 17 18  1  0  0  0
 17 19  1  0  0  0
 17 20  1  0  0  0
 20 21  1  0  0  0
  9 10  1  0  0  0
 10 11  1  0  0  0
 11 12  1  0  0  0
 26 27  1  0  0  0
 27 28  1  0  0  0
 27 29  1  0  0  0
 36 37  2  0  0  0
 37 38  1  0  0  0
 38 39  1  0  0  0
 39 40  1  0  0  0
M  END
> <minimizedAffinity>
-9.77624

$$$$
