CHEMBL2086721


 29 33  0  0  0  0  0  0  0  0999 V2000
  -28.8236   -9.0046   -5.3258 C   0  0  0  0  0  0  0  0  0  0  0  0
  -29.1959   -7.7271   -5.0415 C   0  0  0  0  0  0  0  0  0  0  0  0
  -29.2239   -7.1293   -3.6554 C   0  0  0  0  0  0  0  0  0  0  0  0
  -29.0363   -7.6701   -2.5868 O   0  0  0  0  0  0  0  0  0  0  0  0
  -29.4694   -5.7705   -3.8432 N   0  0  0  0  0  0  0  0  0  0  0  0
  -29.6492   -5.4568   -5.1855 C   0  0  0  0  0  0  0  0  0  0  0  0
  -29.9213   -4.2039   -5.7133 C   0  0  0  0  0  0  0  0  0  0  0  0
  -30.1210   -4.1042   -7.0913 C   0  0  0  0  0  0  0  0  0  0  0  0
  -30.0822   -5.2518   -7.8932 C   0  0  0  0  0  0  0  0  0  0  0  0
  -29.8118   -6.5069   -7.3267 C   0  0  0  0  0  0  0  0  0  0  0  0
  -29.5429   -6.6072   -5.9681 C   0  0  0  0  0  0  0  0  0  0  0  0
  -29.5405   -5.1140   -3.0795 H   0  0  0  0  0  0  0  0  0  0  0  0
  -28.7209   -9.3515   -6.7053 C   0  0  0  0  0  0  0  0  0  0  0  0
  -29.6138   -9.8117   -7.5595 N   0  0  0  0  0  0  0  0  0  0  0  0
  -28.9797   -9.8313   -8.7786 C   0  0  0  0  0  0  0  0  0  0  0  0
  -29.4772  -10.1717  -10.0424 C   0  0  0  0  0  0  0  0  0  0  0  0
  -28.6156  -10.0861  -11.1435 C   0  0  0  0  0  0  0  0  0  0  0  0
  -27.2942   -9.6561  -10.9910 C   0  0  0  0  0  0  0  0  0  0  0  0
  -26.7875   -9.2900   -9.7404 C   0  0  0  0  0  0  0  0  0  0  0  0
  -27.6646   -9.3970   -8.6628 C   0  0  0  0  0  0  0  0  0  0  0  0
  -27.5198   -9.1185   -7.3320 N   0  0  0  0  0  0  0  0  0  0  0  0
  -26.6954   -8.7404   -6.8919 H   0  0  0  0  0  0  0  0  0  0  0  0
  -26.0696   -9.4985   -4.0191 C   0  0  0  0  0  0  0  0  0  0  0  0
  -27.2704  -10.3704   -3.7878 C   0  0  0  0  0  0  0  0  0  0  0  0
  -27.0662  -11.5634   -3.0607 C   0  0  0  0  0  0  0  0  0  0  0  0
  -28.1043  -12.4654   -2.8459 C   0  0  0  0  0  0  0  0  0  0  0  0
  -29.3669  -12.1862   -3.3519 C   0  0  0  0  0  0  0  0  0  0  0  0
  -29.5872  -11.0128   -4.0834 C   0  0  0  0  0  0  0  0  0  0  0  0
  -28.5495  -10.0903   -4.3242 C   0  0  0  0  0  0  0  0  0  0  0  0
 23 24  1  0  0  0
 24 25  1  0  0  0
 24 29  2  0  0  0
 25 26  2  0  0  0
 26 27  1  0  0  0
 27 28  2  0  0  0
 28 29  1  0  0  0
 29  1  1  0  0  0
  1  2  2  0  0  0
  1 13  1  0  0  0
  2  3  1  0  0  0
  2 11  1  0  0  0
  3  4  2  0  0  0
  3  5  1  0  0  0
  5  6  1  0  0  0
  5 12  1  0  0  0
  6  7  1  0  0  0
  6 11  2  0  0  0
  7  8  2  0  0  0
  8  9  1  0  0  0
  9 10  2  0  0  0
 10 11  1  0  0  0
 13 14  2  0  0  0
 13 21  1  0  0  0
 14 15  1  0  0  0
 15 16  1  0  0  0
 15 20  2  0  0  0
 16 17  2  0  0  0
 17 18  1  0  0  0
 18 19  2  0  0  0
 19 20  1  0  0  0
 20 21  1  0  0  0
 21 22  1  0  0  0
M  END
> <minimizedAffinity>
-7.79720

$$$$
