CHEMBL3656050


 34 37  0  0  0  0  0  0  0  0999 V2000
  -21.1222    1.4221  -14.6086 C   0  0  0  0  0  0  0  0  0  0  0  0
  -19.9488    0.8273  -15.0744 C   0  0  0  0  0  0  0  0  0  0  0  0
  -18.7546    1.5514  -15.1342 C   0  0  0  0  0  0  0  0  0  0  0  0
  -18.7353    2.9050  -14.7922 C   0  0  0  0  0  0  0  0  0  0  0  0
  -19.8956    3.5083  -14.3095 C   0  0  0  0  0  0  0  0  0  0  0  0
  -21.0748    2.7680  -14.2263 C   0  0  0  0  0  0  0  0  0  0  0  0
  -22.1788    3.3660  -13.7524 F   0  0  0  0  0  0  0  0  0  0  0  0
  -22.8081   -0.0130  -13.4448 C   0  0  0  0  0  0  0  0  0  0  0  0
  -22.2159   -0.1137  -12.3733 O   0  0  0  0  0  0  0  0  0  0  0  0
  -22.3538    0.7360  -14.5197 N   0  0  0  0  0  0  0  0  0  0  0  0
  -23.0043    0.8519  -15.2922 H   0  0  0  0  0  0  0  0  0  0  0  0
  -25.0332   -0.9257  -11.2836 C   0  0  0  0  0  0  0  0  0  0  0  0
  -25.0646   -1.0669  -12.7627 C   0  0  0  0  0  0  0  0  0  0  0  0
  -26.0976   -1.6520  -13.5442 C   0  0  0  0  0  0  0  0  0  0  0  0
  -25.6959   -1.5613  -14.8546 C   0  0  0  0  0  0  0  0  0  0  0  0
  -24.4873   -0.9506  -14.9429 O   0  0  0  0  0  0  0  0  0  0  0  0
  -24.0916   -0.6530  -13.6651 C   0  0  0  0  0  0  0  0  0  0  0  0
  -17.6727    0.8517  -15.6124 O   0  0  0  0  0  0  0  0  0  0  0  0
  -16.5888    0.6175  -14.8023 C   0  0  0  0  0  0  0  0  0  0  0  0
  -15.5342    1.5001  -14.6003 C   0  0  0  0  0  0  0  0  0  0  0  0
  -14.4962    1.0899  -13.7839 C   0  0  0  0  0  0  0  0  0  0  0  0
  -14.4725   -0.0935  -13.1328 N   0  0  0  0  0  0  0  0  0  0  0  0
  -15.5482   -0.9014  -13.2906 C   0  0  0  0  0  0  0  0  0  0  0  0
  -16.6206   -0.5851  -14.1073 C   0  0  0  0  0  0  0  0  0  0  0  0
  -15.4960   -2.1386  -12.5211 C   0  0  0  0  0  0  0  0  0  0  0  0
  -15.2347   -3.4495  -12.8885 C   0  0  0  0  0  0  0  0  0  0  0  0
  -15.3433   -4.2843  -11.7348 C   0  0  0  0  0  0  0  0  0  0  0  0
  -15.6588   -3.4321  -10.6894 C   0  0  0  0  0  0  0  0  0  0  0  0
  -15.7414   -2.1544  -11.1678 N   0  0  0  0  0  0  0  0  0  0  0  0
  -15.9586   -1.3207  -10.6336 H   0  0  0  0  0  0  0  0  0  0  0  0
  -15.1788   -5.7297  -11.5890 C   0  0  0  0  0  0  0  0  0  0  0  0
  -14.5832   -6.2488  -10.6552 O   0  0  0  0  0  0  0  0  0  0  0  0
  -15.7416   -6.4805  -12.5706 O   0  0  0  0  0  0  0  0  0  0  0  0
  -16.1905   -5.9493  -13.2478 H   0  0  0  0  0  0  0  0  0  0  0  0
 12 13  1  0  0  0
 13 14  1  0  0  0
 13 17  2  0  0  0
 14 15  2  0  0  0
 15 16  1  0  0  0
 16 17  1  0  0  0
 17  8  1  0  0  0
  8  9  2  0  0  0
  8 10  1  0  0  0
 10  1  1  0  0  0
 10 11  1  0  0  0
  1  2  1  0  0  0
  1  6  2  0  0  0
  2  3  2  0  0  0
  3 18  1  0  0  0
  3  4  1  0  0  0
 18 19  1  0  0  0
 19 20  1  0  0  0
 19 24  2  0  0  0
 20 21  2  0  0  0
 21 22  1  0  0  0
 22 23  2  0  0  0
 23 25  1  0  0  0
 23 24  1  0  0  0
 25 26  2  0  0  0
 25 29  1  0  0  0
 26 27  1  0  0  0
 27 31  1  0  0  0
 27 28  2  0  0  0
 31 32  2  0  0  0
 31 33  1  0  0  0
 33 34  1  0  0  0
 28 29  1  0  0  0
 29 30  1  0  0  0
  4  5  2  0  0  0
  5  6  1  0  0  0
  6  7  1  0  0  0
M  END
> <minimizedAffinity>
-9.92203

$$$$
