CHEMBL3947303


 32 35  0  0  0  0  0  0  0  0999 V2000
  -15.8109   -0.5799  -13.9091 C   0  0  0  0  0  0  0  0  0  0  0  0
  -14.5609   -0.0333  -14.2419 C   0  0  0  0  0  0  0  0  0  0  0  0
  -14.4388    1.1617  -14.9523 C   0  0  0  0  0  0  0  0  0  0  0  0
  -15.5984    1.8591  -15.3359 C   0  0  0  0  0  0  0  0  0  0  0  0
  -15.8951    3.0699  -16.0339 C   0  0  0  0  0  0  0  0  0  0  0  0
  -17.2221    3.2326  -16.1758 N   0  0  0  0  0  0  0  0  0  0  0  0
  -17.7518    2.1669  -15.5578 N   0  0  0  0  0  0  0  0  0  0  0  0
  -16.8323    1.3082  -15.0279 C   0  0  0  0  0  0  0  0  0  0  0  0
  -16.9744    0.1054  -14.3235 C   0  0  0  0  0  0  0  0  0  0  0  0
  -18.7611    2.0743  -15.5434 H   0  0  0  0  0  0  0  0  0  0  0  0
  -15.7104   -3.0937  -11.0511 C   0  0  0  0  0  0  0  0  0  0  0  0
  -15.6447   -1.8933  -11.7714 C   0  0  0  0  0  0  0  0  0  0  0  0
  -15.8927   -1.8499  -13.1561 C   0  0  0  0  0  0  0  0  0  0  0  0
  -16.2302   -3.0612  -13.7955 C   0  0  0  0  0  0  0  0  0  0  0  0
  -16.3194   -4.2579  -13.0850 C   0  0  0  0  0  0  0  0  0  0  0  0
  -16.0505   -4.2682  -11.7232 C   0  0  0  0  0  0  0  0  0  0  0  0
  -16.1182   -5.4434  -11.0267 O   0  0  0  0  0  0  0  0  0  0  0  0
  -16.3346   -6.1627  -11.6386 H   0  0  0  0  0  0  0  0  0  0  0  0
  -14.1225   -3.4508   -9.3013 C   0  0  0  0  0  0  0  0  0  0  0  0
  -15.4619   -3.1999   -9.7057 O   0  0  0  0  0  0  0  0  0  0  0  0
  -14.9406    4.0227  -16.6105 C   0  0  0  0  0  0  0  0  0  0  0  0
  -15.0999    4.4740  -17.9225 C   0  0  0  0  0  0  0  0  0  0  0  0
  -14.1419    5.2992  -18.5251 C   0  0  0  0  0  0  0  0  0  0  0  0
  -12.9887    5.6697  -17.7983 C   0  0  0  0  0  0  0  0  0  0  0  0
  -12.8424    5.2386  -16.4600 C   0  0  0  0  0  0  0  0  0  0  0  0
  -13.8344    4.4537  -15.8743 C   0  0  0  0  0  0  0  0  0  0  0  0
  -14.2800    5.7555  -19.8108 O   0  0  0  0  0  0  0  0  0  0  0  0
  -15.0396    6.9327  -20.0470 C   0  0  0  0  0  0  0  0  0  0  0  0
  -11.9382    6.4363  -18.2497 O   0  0  0  0  0  0  0  0  0  0  0  0
  -12.0383    7.8494  -18.2033 C   0  0  0  0  0  0  0  0  0  0  0  0
  -11.6967    5.6217  -15.7963 O   0  0  0  0  0  0  0  0  0  0  0  0
  -11.8327    6.5308  -14.7098 C   0  0  0  0  0  0  0  0  0  0  0  0
 19 20  1  0  0  0
 20 11  1  0  0  0
 11 12  1  0  0  0
 11 16  2  0  0  0
 12 13  2  0  0  0
 13  1  1  0  0  0
 13 14  1  0  0  0
  1  2  1  0  0  0
  1  9  2  0  0  0
  2  3  2  0  0  0
  3  4  1  0  0  0
  4  5  1  0  0  0
  4  8  2  0  0  0
  5 21  1  0  0  0
  5  6  2  0  0  0
 21 22  1  0  0  0
 21 26  2  0  0  0
 22 23  2  0  0  0
 23 27  1  0  0  0
 23 24  1  0  0  0
 27 28  1  0  0  0
 24 29  1  0  0  0
 24 25  2  0  0  0
 29 30  1  0  0  0
 25 31  1  0  0  0
 25 26  1  0  0  0
 31 32  1  0  0  0
  6  7  1  0  0  0
  7  8  1  0  0  0
  7 10  1  0  0  0
  8  9  1  0  0  0
 14 15  2  0  0  0
 15 16  1  0  0  0
 16 17  1  0  0  0
 17 18  1  0  0  0
M  END
> <minimizedAffinity>
-7.66122

$$$$
