CHEMBL432941


 36 40  0  0  0  0  0  0  0  0999 V2000
  -27.6046   -8.5169   -4.4848 C   0  0  0  0  0  0  0  0  0  0  0  0
  -26.9456   -7.4138   -3.8891 C   0  0  0  0  0  0  0  0  0  0  0  0
  -27.2282   -6.1003   -4.2527 C   0  0  0  0  0  0  0  0  0  0  0  0
  -28.1664   -5.8869   -5.2425 C   0  0  0  0  0  0  0  0  0  0  0  0
  -28.8114   -6.9528   -5.8579 C   0  0  0  0  0  0  0  0  0  0  0  0
  -28.5649   -8.2618   -5.4904 C   0  0  0  0  0  0  0  0  0  0  0  0
  -29.6745   -6.4869   -6.8519 N   0  0  0  0  0  0  0  0  0  0  0  0
  -29.6342   -5.1003   -6.9390 C   0  0  0  0  0  0  0  0  0  0  0  0
  -30.2351   -4.3930   -7.7362 O   0  0  0  0  0  0  0  0  0  0  0  0
  -28.6852   -4.6599   -5.8595 C   0  0  0  0  0  0  0  0  0  0  0  0
  -28.3060   -3.4649   -5.3902 C   0  0  0  0  0  0  0  0  0  0  0  0
  -30.2377   -7.0588   -7.4634 H   0  0  0  0  0  0  0  0  0  0  0  0
  -28.7092   -2.1586   -5.7530 C   0  0  0  0  0  0  0  0  0  0  0  0
  -29.6017   -1.4394   -4.9982 N   0  0  0  0  0  0  0  0  0  0  0  0
  -29.7941   -0.2187   -5.5764 C   0  0  0  0  0  0  0  0  0  0  0  0
  -29.0669   -0.1551   -6.7464 C   0  0  0  0  0  0  0  0  0  0  0  0
  -28.3387   -1.3803   -6.8538 C   0  0  0  0  0  0  0  0  0  0  0  0
  -29.1431    1.0270   -7.6600 C   0  0  0  0  0  0  0  0  0  0  0  0
  -29.8585    2.2252   -7.0018 C   0  0  0  0  0  0  0  0  0  0  0  0
  -31.0694    1.8045   -6.1503 C   0  0  0  0  0  0  0  0  0  0  0  0
  -30.6525    0.8563   -5.0152 C   0  0  0  0  0  0  0  0  0  0  0  0
  -30.0418   -1.7579   -4.1384 H   0  0  0  0  0  0  0  0  0  0  0  0
  -27.3667   -1.7705   -7.9428 C   0  0  0  0  0  0  0  0  0  0  0  0
  -28.0500   -1.9770   -9.2915 C   0  0  0  0  0  0  0  0  0  0  0  0
  -27.1219   -1.7202  -10.4506 C   0  0  0  0  0  0  0  0  0  0  0  0
  -27.4686   -1.4210  -11.5833 O   0  0  0  0  0  0  0  0  0  0  0  0
  -25.8209   -1.8600  -10.1003 O   0  0  0  0  0  0  0  0  0  0  0  0
  -25.6887   -2.1061   -9.1671 H   0  0  0  0  0  0  0  0  0  0  0  0
  -25.6614  -11.6422   -3.5098 C   0  0  0  0  0  0  0  0  0  0  0  0
  -26.6873  -12.4659   -3.0566 C   0  0  0  0  0  0  0  0  0  0  0  0
  -28.0103  -12.0337   -3.1191 C   0  0  0  0  0  0  0  0  0  0  0  0
  -28.3102  -10.7652   -3.6156 C   0  0  0  0  0  0  0  0  0  0  0  0
  -27.2968   -9.8933   -4.0407 C   0  0  0  0  0  0  0  0  0  0  0  0
  -25.9722  -10.3729   -4.0055 C   0  0  0  0  0  0  0  0  0  0  0  0
  -23.5627  -11.3910   -2.4457 C   0  0  0  0  0  0  0  0  0  0  0  0
  -24.3275  -11.9484   -3.5074 O   0  0  0  0  0  0  0  0  0  0  0  0
 35 36  1  0  0  0
 36 29  1  0  0  0
 29 30  1  0  0  0
 29 34  2  0  0  0
 30 31  2  0  0  0
 31 32  1  0  0  0
 32 33  2  0  0  0
 33  1  1  0  0  0
 33 34  1  0  0  0
  1  2  1  0  0  0
  1  6  2  0  0  0
  2  3  2  0  0  0
  3  4  1  0  0  0
  4  5  2  0  0  0
  4 10  1  0  0  0
  5  6  1  0  0  0
  5  7  1  0  0  0
  7  8  1  0  0  0
  7 12  1  0  0  0
  8  9  2  0  0  0
  8 10  1  0  0  0
 10 11  2  0  0  0
 11 13  1  0  0  0
 13 14  1  0  0  0
 13 17  2  0  0  0
 14 15  1  0  0  0
 14 22  1  0  0  0
 15 16  2  0  0  0
 15 21  1  0  0  0
 16 17  1  0  0  0
 16 18  1  0  0  0
 17 23  1  0  0  0
 23 24  1  0  0  0
 24 25  1  0  0  0
 25 26  2  0  0  0
 25 27  1  0  0  0
 27 28  1  0  0  0
 18 19  1  0  0  0
 19 20  1  0  0  0
 20 21  1  0  0  0
M  END
> <minimizedAffinity>
-6.20649

$$$$
