CHEMBL1254278


 34 37  0  0  0  0  0  0  0  0999 V2000
  -12.1720   -1.6753  -12.8651 C   0  0  0  0  0  0  0  0  0  0  0  0
  -12.0631   -0.4523  -13.5326 C   0  0  0  0  0  0  0  0  0  0  0  0
  -13.1331    0.0491  -14.2747 C   0  0  0  0  0  0  0  0  0  0  0  0
  -14.3508   -0.6354  -14.3443 C   0  0  0  0  0  0  0  0  0  0  0  0
  -14.4691   -1.8318  -13.6150 C   0  0  0  0  0  0  0  0  0  0  0  0
  -15.9638   -2.7103  -13.5980 Cl  0  0  0  0  0  0  0  0  0  0  0  0
  -13.3922   -2.3492  -12.8797 C   0  0  0  0  0  0  0  0  0  0  0  0
  -15.4498   -0.1371  -15.0956 N   0  0  0  0  0  0  0  0  0  0  0  0
  -16.5015    0.6108  -14.5951 C   0  0  0  0  0  0  0  0  0  0  0  0
  -16.5778    1.0555  -13.4563 O   0  0  0  0  0  0  0  0  0  0  0  0
  -17.5184    0.7647  -15.5292 N   0  0  0  0  0  0  0  0  0  0  0  0
  -15.3542   -0.1874  -16.1023 H   0  0  0  0  0  0  0  0  0  0  0  0
  -17.6240   -0.0204  -16.1563 H   0  0  0  0  0  0  0  0  0  0  0  0
  -18.6975    1.4768  -15.1975 C   0  0  0  0  0  0  0  0  0  0  0  0
  -18.7188    2.8556  -15.3697 C   0  0  0  0  0  0  0  0  0  0  0  0
  -19.9010    3.5231  -15.1047 C   0  0  0  0  0  0  0  0  0  0  0  0
  -21.0138    2.9268  -14.6279 N   0  0  0  0  0  0  0  0  0  0  0  0
  -20.9747    1.5788  -14.4198 C   0  0  0  0  0  0  0  0  0  0  0  0
  -19.8321    0.8288  -14.7132 C   0  0  0  0  0  0  0  0  0  0  0  0
  -22.1857    0.8755  -13.8200 C   0  0  0  0  0  0  0  0  0  0  0  0
  -21.9332    0.2284  -12.6457 F   0  0  0  0  0  0  0  0  0  0  0  0
  -23.2229    1.7231  -13.5595 F   0  0  0  0  0  0  0  0  0  0  0  0
  -22.6959   -0.0778  -14.6570 F   0  0  0  0  0  0  0  0  0  0  0  0
  -11.1404   -2.2204  -12.1269 O   0  0  0  0  0  0  0  0  0  0  0  0
  -10.6968   -4.8096  -13.7537 C   0  0  0  0  0  0  0  0  0  0  0  0
  -11.1753   -5.2940  -12.4782 N   0  0  0  0  0  0  0  0  0  0  0  0
  -11.3759   -6.6193  -12.1757 C   0  0  0  0  0  0  0  0  0  0  0  0
  -11.8205   -6.6978  -10.8757 C   0  0  0  0  0  0  0  0  0  0  0  0
  -11.8824   -5.3760  -10.3751 C   0  0  0  0  0  0  0  0  0  0  0  0
  -12.2638   -4.9558   -9.1520 N   0  0  0  0  0  0  0  0  0  0  0  0
  -12.1923   -3.6290   -8.9989 C   0  0  0  0  0  0  0  0  0  0  0  0
  -11.8099   -2.7154   -9.9055 N   0  0  0  0  0  0  0  0  0  0  0  0
  -11.4800   -3.1466  -11.1444 C   0  0  0  0  0  0  0  0  0  0  0  0
  -11.4809   -4.5121  -11.3887 C   0  0  0  0  0  0  0  0  0  0  0  0
 25 26  1  0  0  0
 26 27  1  0  0  0
 26 34  1  0  0  0
 27 28  2  0  0  0
 28 29  1  0  0  0
 29 30  1  0  0  0
 29 34  2  0  0  0
 30 31  2  0  0  0
 31 32  1  0  0  0
 32 33  2  0  0  0
 33 24  1  0  0  0
 33 34  1  0  0  0
 24  1  1  0  0  0
  1  2  1  0  0  0
  1  7  2  0  0  0
  2  3  2  0  0  0
  3  4  1  0  0  0
  4  8  1  0  0  0
  4  5  2  0  0  0
  8  9  1  0  0  0
  8 12  1  0  0  0
  9 10  2  0  0  0
  9 11  1  0  0  0
 11 14  1  0  0  0
 11 13  1  0  0  0
 14 15  1  0  0  0
 14 19  2  0  0  0
 15 16  2  0  0  0
 16 17  1  0  0  0
 17 18  2  0  0  0
 18 20  1  0  0  0
 18 19  1  0  0  0
 20 21  1  0  0  0
 20 22  1  0  0  0
 20 23  1  0  0  0
  5  6  1  0  0  0
  5  7  1  0  0  0
M  END
> <minimizedAffinity>
-8.85107

$$$$
