CHEMBL3422070


 40 45  0  0  0  0  0  0  0  0999 V2000
  -29.6977   -3.3074   -5.8205 C   0  0  0  0  0  0  0  0  0  0  0  0
  -30.0372   -2.5262   -4.7807 N   0  0  0  0  0  0  0  0  0  0  0  0
  -30.0555   -3.3452   -3.7439 N   0  0  0  0  0  0  0  0  0  0  0  0
  -29.8272   -4.6550   -4.0886 C   0  0  0  0  0  0  0  0  0  0  0  0
  -29.5523   -5.7699   -3.3051 C   0  0  0  0  0  0  0  0  0  0  0  0
  -29.5027   -7.0076   -3.9555 C   0  0  0  0  0  0  0  0  0  0  0  0
  -29.8130   -7.1103   -5.3145 C   0  0  0  0  0  0  0  0  0  0  0  0
  -29.9460   -5.9538   -6.1082 C   0  0  0  0  0  0  0  0  0  0  0  0
  -29.8871   -4.6870   -5.4844 C   0  0  0  0  0  0  0  0  0  0  0  0
  -30.1620   -2.9546   -2.8247 H   0  0  0  0  0  0  0  0  0  0  0  0
  -27.1539   -1.8545   -8.9090 C   0  0  0  0  0  0  0  0  0  0  0  0
  -27.6999   -3.1307   -8.9487 C   0  0  0  0  0  0  0  0  0  0  0  0
  -28.6056   -3.5130   -7.9731 C   0  0  0  0  0  0  0  0  0  0  0  0
  -28.9319   -2.6677   -6.8894 C   0  0  0  0  0  0  0  0  0  0  0  0
  -28.4379   -1.3675   -6.8863 C   0  0  0  0  0  0  0  0  0  0  0  0
  -27.5464   -0.9631   -7.9027 C   0  0  0  0  0  0  0  0  0  0  0  0
  -26.2147   -1.6269   -9.8698 O   0  0  0  0  0  0  0  0  0  0  0  0
  -22.6640   -0.4945  -12.4630 C   0  0  0  0  0  0  0  0  0  0  0  0
  -24.0975   -0.7894  -12.5212 N   0  0  0  0  0  0  0  0  0  0  0  0
  -24.3430   -2.1615  -12.0564 C   0  0  0  0  0  0  0  0  0  0  0  0
  -25.8353   -2.4928  -12.1233 C   0  0  0  0  0  0  0  0  0  0  0  0
  -26.6317   -1.5360  -11.2334 C   0  0  0  0  0  0  0  0  0  0  0  0
  -26.3502   -0.1054  -11.7019 C   0  0  0  0  0  0  0  0  0  0  0  0
  -24.8477    0.1935  -11.7230 C   0  0  0  0  0  0  0  0  0  0  0  0
  -30.0029   -8.4144   -5.8487 N   0  0  0  0  0  0  0  0  0  0  0  0
  -28.8948   -9.2019   -6.1690 C   0  0  0  0  0  0  0  0  0  0  0  0
  -27.7361   -8.8859   -5.8923 O   0  0  0  0  0  0  0  0  0  0  0  0
  -30.8006   -8.5360   -6.4636 H   0  0  0  0  0  0  0  0  0  0  0  0
  -29.2022  -10.4605   -7.0135 C   0  0  0  0  0  0  0  0  0  0  0  0
  -30.6076  -10.9955   -6.7274 C   0  0  0  0  0  0  0  0  0  0  0  0
  -30.8324  -12.0787   -5.8745 C   0  0  0  0  0  0  0  0  0  0  0  0
  -32.1393  -12.4659   -5.5776 C   0  0  0  0  0  0  0  0  0  0  0  0
  -33.2019  -11.7583   -6.1191 C   0  0  0  0  0  0  0  0  0  0  0  0
  -32.9065  -10.7013   -6.9635 C   0  0  0  0  0  0  0  0  0  0  0  0
  -31.6476  -10.3185   -7.2886 N   0  0  0  0  0  0  0  0  0  0  0  0
  -29.0466  -10.1317   -8.5261 C   0  0  0  0  0  0  0  0  0  0  0  0
  -29.1799  -11.3268   -9.4815 C   0  0  0  0  0  0  0  0  0  0  0  0
  -28.5237  -10.8737  -10.7882 C   0  0  0  0  0  0  0  0  0  0  0  0
  -27.6471   -9.6768  -10.4336 C   0  0  0  0  0  0  0  0  0  0  0  0
  -27.6605   -9.5956   -8.9121 C   0  0  0  0  0  0  0  0  0  0  0  0
 18 19  1  0  0  0
 19 20  1  0  0  0
 19 24  1  0  0  0
 20 21  1  0  0  0
 21 22  1  0  0  0
 22 17  1  0  0  0
 22 23  1  0  0  0
 17 11  1  0  0  0
 11 12  1  0  0  0
 11 16  2  0  0  0
 12 13  2  0  0  0
 13 14  1  0  0  0
 14  1  1  0  0  0
 14 15  2  0  0  0
  1  2  2  0  0  0
  1  9  1  0  0  0
  2  3  1  0  0  0
  3  4  1  0  0  0
  3 10  1  0  0  0
  4  5  1  0  0  0
  4  9  2  0  0  0
  5  6  2  0  0  0
  6  7  1  0  0  0
  7 25  1  0  0  0
  7  8  2  0  0  0
 25 26  1  0  0  0
 25 28  1  0  0  0
 26 27  2  0  0  0
 26 29  1  0  0  0
 29 30  1  0  0  0
 29 36  1  0  0  0
 30 31  1  0  0  0
 30 35  2  0  0  0
 31 32  2  0  0  0
 32 33  1  0  0  0
 33 34  2  0  0  0
 34 35  1  0  0  0
 36 37  1  0  0  0
 36 40  1  0  0  0
 37 38  1  0  0  0
 38 39  1  0  0  0
 39 40  1  0  0  0
  8  9  1  0  0  0
 15 16  1  0  0  0
 23 24  1  0  0  0
M  END
> <minimizedAffinity>
-8.77701

$$$$
