CHEMBL222225


 23 25  0  0  0  0  0  0  0  0999 V2000
  -15.3470    0.6384  -14.9764 C   0  0  0  0  0  0  0  0  0  0  0  0
  -16.6312    0.8136  -14.4520 C   0  0  0  0  0  0  0  0  0  0  0  0
  -17.4445    1.8728  -14.8842 C   0  0  0  0  0  0  0  0  0  0  0  0
  -16.9052    2.7748  -15.7988 C   0  0  0  0  0  0  0  0  0  0  0  0
  -15.6032    2.5776  -16.2220 C   0  0  0  0  0  0  0  0  0  0  0  0
  -14.8326    1.5354  -15.8386 N   0  0  0  0  0  0  0  0  0  0  0  0
  -14.6166   -0.5006  -14.5735 N   0  0  0  0  0  0  0  0  0  0  0  0
  -13.6185   -0.3402  -14.5688 H   0  0  0  0  0  0  0  0  0  0  0  0
  -15.8653   -3.2339  -12.2884 C   0  0  0  0  0  0  0  0  0  0  0  0
  -15.6513   -2.0542  -11.6152 C   0  0  0  0  0  0  0  0  0  0  0  0
  -15.1386   -1.0245  -12.3803 N   0  0  0  0  0  0  0  0  0  0  0  0
  -14.9900   -1.4056  -13.6361 C   0  0  0  0  0  0  0  0  0  0  0  0
  -15.3319   -3.0782  -13.8976 S   0  0  0  0  0  0  0  0  0  0  0  0
  -16.9266   -5.3835  -11.3322 N   0  0  0  0  0  0  0  0  0  0  0  0
  -16.4478   -4.4060  -11.7434 C   0  0  0  0  0  0  0  0  0  0  0  0
  -18.8594    2.0179  -14.3641 C   0  0  0  0  0  0  0  0  0  0  0  0
  -19.9232    1.8516  -15.3727 N   0  0  0  0  0  0  0  0  0  0  0  0
  -20.7989    3.0480  -15.4002 C   0  0  0  0  0  0  0  0  0  0  0  0
  -21.7559    3.1896  -14.1882 C   0  0  0  0  0  0  0  0  0  0  0  0
  -22.5429    1.9894  -13.8642 N   0  0  0  0  0  0  0  0  0  0  0  0
  -21.7270    0.7679  -13.9332 C   0  0  0  0  0  0  0  0  0  0  0  0
  -20.7934    0.6781  -15.1611 C   0  0  0  0  0  0  0  0  0  0  0  0
  -23.3052    1.9088  -14.5363 H   0  0  0  0  0  0  0  0  0  0  0  0
 14 15  3  0  0  0
 15  9  1  0  0  0
  9 10  2  0  0  0
  9 13  1  0  0  0
 10 11  1  0  0  0
 11 12  2  0  0  0
 12  7  1  0  0  0
 12 13  1  0  0  0
  7  1  1  0  0  0
  7  8  1  0  0  0
  1  2  1  0  0  0
  1  6  2  0  0  0
  2  3  2  0  0  0
  3 16  1  0  0  0
  3  4  1  0  0  0
 16 17  1  0  0  0
 17 18  1  0  0  0
 17 22  1  0  0  0
 18 19  1  0  0  0
 19 20  1  0  0  0
 20 21  1  0  0  0
 20 23  1  0  0  0
 21 22  1  0  0  0
  4  5  2  0  0  0
  5  6  1  0  0  0
M  END
> <minimizedAffinity>
-6.72468

$$$$
