CHEMBL427267


 37 41  0  0  0  0  0  0  0  0999 V2000
  -28.2533   -9.0159   -4.9106 C   0  0  0  0  0  0  0  0  0  0  0  0
  -28.0055   -8.4709   -6.1694 C   0  0  0  0  0  0  0  0  0  0  0  0
  -28.4041   -7.1683   -6.4653 C   0  0  0  0  0  0  0  0  0  0  0  0
  -29.1009   -6.3959   -5.5263 C   0  0  0  0  0  0  0  0  0  0  0  0
  -29.4723   -7.0045   -4.3210 C   0  0  0  0  0  0  0  0  0  0  0  0
  -29.0378   -8.3035   -4.0048 C   0  0  0  0  0  0  0  0  0  0  0  0
  -29.4051   -4.9846   -5.8263 C   0  0  0  0  0  0  0  0  0  0  0  0
  -30.1999   -4.7107   -6.9204 C   0  0  0  0  0  0  0  0  0  0  0  0
  -30.3239   -3.0656   -7.2572 S   0  0  0  0  0  0  0  0  0  0  0  0
  -29.4891   -2.6035   -5.8099 C   0  0  0  0  0  0  0  0  0  0  0  0
  -29.2845   -1.2792   -5.3301 C   0  0  0  0  0  0  0  0  0  0  0  0
  -28.4997   -1.2278   -4.1826 C   0  0  0  0  0  0  0  0  0  0  0  0
  -27.9368   -2.2766   -3.5592 N   0  0  0  0  0  0  0  0  0  0  0  0
  -28.1391   -3.5221   -4.0252 C   0  0  0  0  0  0  0  0  0  0  0  0
  -27.4522   -4.5000   -3.3159 N   0  0  0  0  0  0  0  0  0  0  0  0
  -28.9679   -3.7467   -5.1596 C   0  0  0  0  0  0  0  0  0  0  0  0
  -26.7784   -4.0449   -2.7082 H   0  0  0  0  0  0  0  0  0  0  0  0
  -27.0661   -5.2257   -3.9077 H   0  0  0  0  0  0  0  0  0  0  0  0
  -29.8192   -0.0506   -5.9600 C   0  0  0  0  0  0  0  0  0  0  0  0
  -31.1887    0.2658   -5.9233 C   0  0  0  0  0  0  0  0  0  0  0  0
  -31.6771    1.4286   -6.5238 C   0  0  0  0  0  0  0  0  0  0  0  0
  -30.7793    2.2736   -7.1460 C   0  0  0  0  0  0  0  0  0  0  0  0
  -29.4630    2.0135   -7.2357 N   0  0  0  0  0  0  0  0  0  0  0  0
  -29.0266    0.8624   -6.6616 C   0  0  0  0  0  0  0  0  0  0  0  0
  -25.9628  -11.5183   -3.6281 N   0  0  0  0  0  0  0  0  0  0  0  0
  -26.3868  -10.2439   -3.9556 C   0  0  0  0  0  0  0  0  0  0  0  0
  -25.7475   -9.2186   -3.7533 O   0  0  0  0  0  0  0  0  0  0  0  0
  -27.6621  -10.2419   -4.5180 N   0  0  0  0  0  0  0  0  0  0  0  0
  -26.4582  -12.2841   -4.0468 H   0  0  0  0  0  0  0  0  0  0  0  0
  -28.2851  -10.9482   -4.1540 H   0  0  0  0  0  0  0  0  0  0  0  0
  -21.0734  -12.2824   -3.6965 C   0  0  0  0  0  0  0  0  0  0  0  0
  -22.3675  -12.2103   -2.9430 C   0  0  0  0  0  0  0  0  0  0  0  0
  -22.3887  -12.4653   -1.5668 C   0  0  0  0  0  0  0  0  0  0  0  0
  -23.5858  -12.4128   -0.8660 C   0  0  0  0  0  0  0  0  0  0  0  0
  -24.7716  -12.1032   -1.5324 C   0  0  0  0  0  0  0  0  0  0  0  0
  -24.7823  -11.8312   -2.9047 C   0  0  0  0  0  0  0  0  0  0  0  0
  -23.5689  -11.8920   -3.6047 C   0  0  0  0  0  0  0  0  0  0  0  0
 31 32  1  0  0  0
 32 33  1  0  0  0
 32 37  2  0  0  0
 33 34  2  0  0  0
 34 35  1  0  0  0
 35 36  2  0  0  0
 36 25  1  0  0  0
 36 37  1  0  0  0
 25 26  1  0  0  0
 25 29  1  0  0  0
 26 27  2  0  0  0
 26 28  1  0  0  0
 28  1  1  0  0  0
 28 30  1  0  0  0
  1  2  1  0  0  0
  1  6  2  0  0  0
  2  3  2  0  0  0
  3  4  1  0  0  0
  4  7  1  0  0  0
  4  5  2  0  0  0
  7  8  2  0  0  0
  7 16  1  0  0  0
  8  9  1  0  0  0
  9 10  1  0  0  0
 10 11  1  0  0  0
 10 16  2  0  0  0
 11 19  1  0  0  0
 11 12  2  0  0  0
 19 20  1  0  0  0
 19 24  2  0  0  0
 20 21  2  0  0  0
 21 22  1  0  0  0
 22 23  2  0  0  0
 23 24  1  0  0  0
 12 13  1  0  0  0
 13 14  2  0  0  0
 14 15  1  0  0  0
 14 16  1  0  0  0
 15 17  1  0  0  0
 15 18  1  0  0  0
  5  6  1  0  0  0
M  END
> <minimizedAffinity>
-6.11641

$$$$
