CHEMBL3823527


 23 25  0  0  0  0  0  0  0  0999 V2000
  -27.8905   -1.6598   -6.8740 C   0  0  0  0  0  0  0  0  0  0  0  0
  -27.7852   -0.8058   -5.7846 C   0  0  0  0  0  0  0  0  0  0  0  0
  -28.4988   -1.0859   -4.6195 C   0  0  0  0  0  0  0  0  0  0  0  0
  -29.3096   -2.2014   -4.5062 C   0  0  0  0  0  0  0  0  0  0  0  0
  -29.9475   -2.3690   -3.3401 N   0  0  0  0  0  0  0  0  0  0  0  0
  -30.7474   -3.4383   -3.2065 C   0  0  0  0  0  0  0  0  0  0  0  0
  -30.9090   -4.3865   -4.1918 C   0  0  0  0  0  0  0  0  0  0  0  0
  -30.2027   -4.2605   -5.3958 C   0  0  0  0  0  0  0  0  0  0  0  0
  -29.4148   -3.0983   -5.5996 C   0  0  0  0  0  0  0  0  0  0  0  0
  -28.7176   -2.7834   -6.7913 C   0  0  0  0  0  0  0  0  0  0  0  0
  -27.6989   -2.3246   -9.1220 C   0  0  0  0  0  0  0  0  0  0  0  0
  -27.2489   -1.4756   -8.0682 O   0  0  0  0  0  0  0  0  0  0  0  0
  -30.2316   -5.3550   -6.3066 N   0  0  0  0  0  0  0  0  0  0  0  0
  -30.3806   -5.1409   -7.2821 H   0  0  0  0  0  0  0  0  0  0  0  0
  -29.6116   -6.6092   -6.0825 C   0  0  0  0  0  0  0  0  0  0  0  0
  -28.3710   -6.6631   -5.4151 C   0  0  0  0  0  0  0  0  0  0  0  0
  -27.8447   -7.8739   -4.9898 C   0  0  0  0  0  0  0  0  0  0  0  0
  -26.6839   -7.9304   -4.2791 O   0  0  0  0  0  0  0  0  0  0  0  0
  -28.5140   -9.0587   -5.2536 C   0  0  0  0  0  0  0  0  0  0  0  0
  -29.6978   -9.0304   -5.9952 C   0  0  0  0  0  0  0  0  0  0  0  0
  -30.2493   -7.8134   -6.4349 C   0  0  0  0  0  0  0  0  0  0  0  0
  -31.5244   -7.8309   -7.2307 C   0  0  0  0  0  0  0  0  0  0  0  0
  -26.3548   -7.0238   -4.1549 H   0  0  0  0  0  0  0  0  0  0  0  0
 11 12  1  0  0  0
 12  1  1  0  0  0
  1  2  1  0  0  0
  1 10  2  0  0  0
  2  3  2  0  0  0
  3  4  1  0  0  0
  4  5  1  0  0  0
  4  9  2  0  0  0
  5  6  2  0  0  0
  6  7  1  0  0  0
  7  8  2  0  0  0
  8 13  1  0  0  0
  8  9  1  0  0  0
 13 15  1  0  0  0
 13 14  1  0  0  0
 15 16  1  0  0  0
 15 21  2  0  0  0
 16 17  2  0  0  0
 17 18  1  0  0  0
 17 19  1  0  0  0
 18 23  1  0  0  0
 19 20  2  0  0  0
 20 21  1  0  0  0
 21 22  1  0  0  0
  9 10  1  0  0  0
M  END
> <minimizedAffinity>
-7.74864

$$$$
