CHEMBL3403519


 22 24  0  0  0  0  0  0  0  0999 V2000
  -30.7079   -5.5099   -4.6827 N   0  0  0  0  0  0  0  0  0  0  0  0
  -31.7188   -5.6639   -3.6379 C   0  0  0  0  0  0  0  0  0  0  0  0
  -30.4085   -6.7087   -5.3675 C   0  0  0  0  0  0  0  0  0  0  0  0
  -31.3026   -7.2299   -6.2557 N   0  0  0  0  0  0  0  0  0  0  0  0
  -31.0652   -8.4224   -6.8465 C   0  0  0  0  0  0  0  0  0  0  0  0
  -32.1376   -8.9590   -7.7459 C   0  0  0  0  0  0  0  0  0  0  0  0
  -29.9776   -9.1898   -6.6876 N   0  0  0  0  0  0  0  0  0  0  0  0
  -29.0914   -8.6345   -5.8548 C   0  0  0  0  0  0  0  0  0  0  0  0
  -27.9027   -9.2291   -5.5359 O   0  0  0  0  0  0  0  0  0  0  0  0
  -27.2520   -8.3994   -4.6741 C   0  0  0  0  0  0  0  0  0  0  0  0
  -25.9433   -8.8424   -4.1570 C   0  0  0  0  0  0  0  0  0  0  0  0
  -28.0009   -7.2678   -4.4542 C   0  0  0  0  0  0  0  0  0  0  0  0
  -29.2129   -7.4308   -5.1822 C   0  0  0  0  0  0  0  0  0  0  0  0
  -28.8910   -1.7300   -5.3392 C   0  0  0  0  0  0  0  0  0  0  0  0
  -29.3026   -2.1134   -4.0682 C   0  0  0  0  0  0  0  0  0  0  0  0
  -29.9509   -3.3381   -3.8821 C   0  0  0  0  0  0  0  0  0  0  0  0
  -30.1680   -4.2380   -4.9415 C   0  0  0  0  0  0  0  0  0  0  0  0
  -29.7725   -3.8229   -6.2183 C   0  0  0  0  0  0  0  0  0  0  0  0
  -29.1424   -2.5842   -6.4140 C   0  0  0  0  0  0  0  0  0  0  0  0
  -28.2430   -0.5664   -5.6509 O   0  0  0  0  0  0  0  0  0  0  0  0
  -30.0443    1.0040   -5.7464 C   0  0  0  0  0  0  0  0  0  0  0  0
  -28.7508    0.6253   -5.0496 C   0  0  0  0  0  0  0  0  0  0  0  0
 21 22  1  0  0  0
 22 20  1  0  0  0
 20 14  1  0  0  0
 14 15  1  0  0  0
 14 19  2  0  0  0
 15 16  2  0  0  0
 16 17  1  0  0  0
 17  1  1  0  0  0
 17 18  2  0  0  0
  1  2  1  0  0  0
  1  3  1  0  0  0
  3  4  1  0  0  0
  3 13  2  0  0  0
  4  5  2  0  0  0
  5  6  1  0  0  0
  5  7  1  0  0  0
  7  8  2  0  0  0
  8  9  1  0  0  0
  8 13  1  0  0  0
  9 10  1  0  0  0
 10 11  1  0  0  0
 10 12  2  0  0  0
 12 13  1  0  0  0
 18 19  1  0  0  0
M  END
> <minimizedAffinity>
-7.36758

$$$$
