CHEMBL3909626


 36 40  0  0  0  0  0  0  0  0999 V2000
  -12.7705   -1.9732  -14.1371 C   0  0  0  0  0  0  0  0  0  0  0  0
  -12.6892   -2.8612  -13.0681 C   0  0  0  0  0  0  0  0  0  0  0  0
  -13.6791   -2.8977  -12.0632 C   0  0  0  0  0  0  0  0  0  0  0  0
  -13.6126   -3.7296  -10.9390 C   0  0  0  0  0  0  0  0  0  0  0  0
  -14.6048   -3.7793  -10.0335 N   0  0  0  0  0  0  0  0  0  0  0  0
  -15.6472   -2.9704  -10.2408 C   0  0  0  0  0  0  0  0  0  0  0  0
  -15.7934   -2.1144  -11.2562 N   0  0  0  0  0  0  0  0  0  0  0  0
  -14.8116   -2.0837  -12.1658 C   0  0  0  0  0  0  0  0  0  0  0  0
  -14.9175   -1.2464  -13.2693 C   0  0  0  0  0  0  0  0  0  0  0  0
  -13.9363   -1.2009  -14.2750 C   0  0  0  0  0  0  0  0  0  0  0  0
  -11.7701   -2.5888  -16.2427 C   0  0  0  0  0  0  0  0  0  0  0  0
  -11.7634   -1.8172  -15.0468 O   0  0  0  0  0  0  0  0  0  0  0  0
  -12.4501   -4.5292  -10.7297 N   0  0  0  0  0  0  0  0  0  0  0  0
  -12.0549   -4.3053   -9.8217 H   0  0  0  0  0  0  0  0  0  0  0  0
  -12.3861   -5.9033  -11.0370 C   0  0  0  0  0  0  0  0  0  0  0  0
  -11.3051   -6.6710  -10.5854 C   0  0  0  0  0  0  0  0  0  0  0  0
  -11.1640   -8.0033  -10.9637 C   0  0  0  0  0  0  0  0  0  0  0  0
  -12.1168   -8.5942  -11.7930 C   0  0  0  0  0  0  0  0  0  0  0  0
  -11.8455  -10.2263  -12.2885 Cl  0  0  0  0  0  0  0  0  0  0  0  0
  -13.2299   -7.8538  -12.2082 C   0  0  0  0  0  0  0  0  0  0  0  0
  -14.4559   -8.5264  -13.2258 Cl  0  0  0  0  0  0  0  0  0  0  0  0
  -13.3704   -6.5157  -11.8194 C   0  0  0  0  0  0  0  0  0  0  0  0
  -14.2608   -0.3695  -15.3275 O   0  0  0  0  0  0  0  0  0  0  0  0
  -14.8359    0.8855  -14.9542 C   0  0  0  0  0  0  0  0  0  0  0  0
  -15.7602    1.4419  -16.0410 C   0  0  0  0  0  0  0  0  0  0  0  0
  -17.0695    1.7437  -15.4717 N   0  0  0  0  0  0  0  0  0  0  0  0
  -17.6575    2.9776  -15.5221 C   0  0  0  0  0  0  0  0  0  0  0  0
  -17.1925    4.0338  -15.9033 O   0  0  0  0  0  0  0  0  0  0  0  0
  -19.0436    2.8018  -15.0921 C   0  0  0  0  0  0  0  0  0  0  0  0
  -20.0730    3.7117  -14.9601 C   0  0  0  0  0  0  0  0  0  0  0  0
  -21.3290    3.2179  -14.5937 C   0  0  0  0  0  0  0  0  0  0  0  0
  -21.5288    1.8399  -14.3820 C   0  0  0  0  0  0  0  0  0  0  0  0
  -20.4746    0.9309  -14.5256 C   0  0  0  0  0  0  0  0  0  0  0  0
  -19.2414    1.4476  -14.8736 C   0  0  0  0  0  0  0  0  0  0  0  0
  -17.9752    0.7692  -15.1407 C   0  0  0  0  0  0  0  0  0  0  0  0
  -17.8365   -0.4382  -15.1349 O   0  0  0  0  0  0  0  0  0  0  0  0
 11 12  1  0  0  0
 12  1  1  0  0  0
  1  2  1  0  0  0
  1 10  2  0  0  0
  2  3  2  0  0  0
  3  4  1  0  0  0
  3  8  1  0  0  0
  4 13  1  0  0  0
  4  5  2  0  0  0
 13 15  1  0  0  0
 13 14  1  0  0  0
 15 16  1  0  0  0
 15 22  2  0  0  0
 16 17  2  0  0  0
 17 18  1  0  0  0
 18 19  1  0  0  0
 18 20  2  0  0  0
 20 21  1  0  0  0
 20 22  1  0  0  0
  5  6  1  0  0  0
  6  7  2  0  0  0
  7  8  1  0  0  0
  8  9  2  0  0  0
  9 10  1  0  0  0
 10 23  1  0  0  0
 23 24  1  0  0  0
 24 25  1  0  0  0
 25 26  1  0  0  0
 26 27  1  0  0  0
 26 35  1  0  0  0
 27 28  2  0  0  0
 27 29  1  0  0  0
 29 30  1  0  0  0
 29 34  2  0  0  0
 30 31  2  0  0  0
 31 32  1  0  0  0
 32 33  2  0  0  0
 33 34  1  0  0  0
 34 35  1  0  0  0
 35 36  2  0  0  0
M  END
> <minimizedAffinity>
-8.82529

$$$$
