CHEMBL427321


 31 34  0  0  0  0  0  0  0  0999 V2000
  -23.3547   11.1865  -16.2256 C   0  0  0  0  0  0  0  0  0  0  0  0
  -24.2154   10.2968  -16.8777 C   0  0  0  0  0  0  0  0  0  0  0  0
  -25.5610   10.2020  -16.5089 C   0  0  0  0  0  0  0  0  0  0  0  0
  -26.0856   11.0432  -15.5146 C   0  0  0  0  0  0  0  0  0  0  0  0
  -25.1795   11.8539  -14.8003 C   0  0  0  0  0  0  0  0  0  0  0  0
  -23.8148   11.9042  -15.1314 C   0  0  0  0  0  0  0  0  0  0  0  0
  -27.5422   11.2481  -15.3521 C   0  0  0  0  0  0  0  0  0  0  0  0
  -28.4736   10.7073  -16.2753 C   0  0  0  0  0  0  0  0  0  0  0  0
  -29.8498   10.6054  -15.9820 C   0  0  0  0  0  0  0  0  0  0  0  0
  -30.3328   10.9726  -14.7291 C   0  0  0  0  0  0  0  0  0  0  0  0
  -29.4173   11.5070  -13.8493 C   0  0  0  0  0  0  0  0  0  0  0  0
  -28.0763   11.7323  -14.1634 C   0  0  0  0  0  0  0  0  0  0  0  0
  -27.4280   12.3674  -12.9793 C   0  0  0  0  0  0  0  0  0  0  0  0
  -28.3269   12.0218  -11.9115 N   0  0  0  0  0  0  0  0  0  0  0  0
  -29.5211   11.5885  -12.3948 C   0  0  0  0  0  0  0  0  0  0  0  0
  -30.4516   11.1499  -11.7373 O   0  0  0  0  0  0  0  0  0  0  0  0
  -27.9689   11.4852  -11.1020 H   0  0  0  0  0  0  0  0  0  0  0  0
  -20.5267   11.5396  -18.4619 N   0  0  0  0  0  0  0  0  0  0  0  0
  -21.8442   11.3144  -18.1050 C   0  0  0  0  0  0  0  0  0  0  0  0
  -22.7309   11.0102  -18.8979 O   0  0  0  0  0  0  0  0  0  0  0  0
  -22.0580   11.4396  -16.7351 N   0  0  0  0  0  0  0  0  0  0  0  0
  -19.8479   11.3116  -17.7541 H   0  0  0  0  0  0  0  0  0  0  0  0
  -21.5661   12.2261  -16.3423 H   0  0  0  0  0  0  0  0  0  0  0  0
  -18.9377   10.4815  -21.6545 C   0  0  0  0  0  0  0  0  0  0  0  0
  -19.2668   11.5462  -22.4864 C   0  0  0  0  0  0  0  0  0  0  0  0
  -19.9769   12.6395  -21.9878 C   0  0  0  0  0  0  0  0  0  0  0  0
  -20.3643   12.6590  -20.6539 C   0  0  0  0  0  0  0  0  0  0  0  0
  -20.0810   11.5855  -19.8021 C   0  0  0  0  0  0  0  0  0  0  0  0
  -19.3280   10.5058  -20.3000 C   0  0  0  0  0  0  0  0  0  0  0  0
  -16.9996    8.9140  -21.3510 C   0  0  0  0  0  0  0  0  0  0  0  0
  -18.1895    9.2957  -22.2198 C   0  0  0  0  0  0  0  0  0  0  0  0
 30 31  1  0  0  0
 31 24  1  0  0  0
 24 25  1  0  0  0
 24 29  2  0  0  0
 25 26  2  0  0  0
 26 27  1  0  0  0
 27 28  2  0  0  0
 28 18  1  0  0  0
 28 29  1  0  0  0
 18 19  1  0  0  0
 18 22  1  0  0  0
 19 20  2  0  0  0
 19 21  1  0  0  0
 21  1  1  0  0  0
 21 23  1  0  0  0
  1  2  1  0  0  0
  1  6  2  0  0  0
  2  3  2  0  0  0
  3  4  1  0  0  0
  4  7  1  0  0  0
  4  5  2  0  0  0
  7  8  1  0  0  0
  7 12  2  0  0  0
  8  9  2  0  0  0
  9 10  1  0  0  0
 10 11  2  0  0  0
 11 12  1  0  0  0
 11 15  1  0  0  0
 12 13  1  0  0  0
 13 14  1  0  0  0
 14 15  1  0  0  0
 14 17  1  0  0  0
 15 16  2  0  0  0
  5  6  1  0  0  0
M  END
> <minimizedAffinity>
-7.43532

$$$$
