CHEMBL3739750


 35 39  0  0  0  0  0  0  0  0999 V2000
  -13.7397   -1.7048  -14.5723 C   0  0  0  0  0  0  0  0  0  0  0  0
  -13.3871   -2.1293  -15.8568 C   0  0  0  0  0  0  0  0  0  0  0  0
  -12.9709   -1.4132  -17.1000 C   0  0  0  0  0  0  0  0  0  0  0  0
  -13.4531   -3.5041  -15.8778 N   0  0  0  0  0  0  0  0  0  0  0  0
  -13.7982   -4.0174  -14.6507 C   0  0  0  0  0  0  0  0  0  0  0  0
  -13.9653   -2.9206  -13.7961 C   0  0  0  0  0  0  0  0  0  0  0  0
  -13.2509   -4.0725  -16.6896 H   0  0  0  0  0  0  0  0  0  0  0  0
  -13.9600   -5.4707  -14.4401 C   0  0  0  0  0  0  0  0  0  0  0  0
  -12.8381   -6.3033  -14.3221 C   0  0  0  0  0  0  0  0  0  0  0  0
  -12.9574   -7.6065  -13.8354 C   0  0  0  0  0  0  0  0  0  0  0  0
  -14.2146   -8.1298  -13.5520 C   0  0  0  0  0  0  0  0  0  0  0  0
  -15.3514   -7.3565  -13.7768 C   0  0  0  0  0  0  0  0  0  0  0  0
  -15.2261   -6.0312  -14.2106 C   0  0  0  0  0  0  0  0  0  0  0  0
  -14.3534   -3.0391  -12.3760 C   0  0  0  0  0  0  0  0  0  0  0  0
  -13.4611   -3.5677  -11.4339 C   0  0  0  0  0  0  0  0  0  0  0  0
  -13.7807   -3.6270  -10.0758 C   0  0  0  0  0  0  0  0  0  0  0  0
  -15.0604   -3.2999   -9.6553 C   0  0  0  0  0  0  0  0  0  0  0  0
  -15.9968   -2.8551  -10.5846 C   0  0  0  0  0  0  0  0  0  0  0  0
  -15.6248   -2.6648  -11.9200 C   0  0  0  0  0  0  0  0  0  0  0  0
  -13.8461   -0.3155  -14.0643 C   0  0  0  0  0  0  0  0  0  0  0  0
  -13.0996    0.1517  -13.2190 O   0  0  0  0  0  0  0  0  0  0  0  0
  -14.8491    1.6867  -15.3202 C   0  0  0  0  0  0  0  0  0  0  0  0
  -16.0506    2.2745  -15.4538 N   0  0  0  0  0  0  0  0  0  0  0  0
  -16.9099    1.4961  -14.7497 N   0  0  0  0  0  0  0  0  0  0  0  0
  -16.2581    0.4655  -14.1213 C   0  0  0  0  0  0  0  0  0  0  0  0
  -14.9394    0.5192  -14.5129 C   0  0  0  0  0  0  0  0  0  0  0  0
  -18.3000    1.7792  -14.7188 C   0  0  0  0  0  0  0  0  0  0  0  0
  -18.7355    3.0629  -14.3621 C   0  0  0  0  0  0  0  0  0  0  0  0
  -20.0988    3.3542  -14.3462 C   0  0  0  0  0  0  0  0  0  0  0  0
  -21.0298    2.3733  -14.6816 C   0  0  0  0  0  0  0  0  0  0  0  0
  -20.6013    1.0953  -15.0356 C   0  0  0  0  0  0  0  0  0  0  0  0
  -19.2402    0.7921  -15.0589 C   0  0  0  0  0  0  0  0  0  0  0  0
  -13.5916    2.2074  -17.4789 C   0  0  0  0  0  0  0  0  0  0  0  0
  -13.6518    2.2466  -15.9723 C   0  0  0  0  0  0  0  0  0  0  0  0
  -12.6943    2.6810  -15.3292 O   0  0  0  0  0  0  0  0  0  0  0  0
 33 34  1  0  0  0
 34 35  2  0  0  0
 34 22  1  0  0  0
 22 23  2  0  0  0
 22 26  1  0  0  0
 23 24  1  0  0  0
 24 27  1  0  0  0
 24 25  1  0  0  0
 27 28  1  0  0  0
 27 32  2  0  0  0
 28 29  2  0  0  0
 29 30  1  0  0  0
 30 31  2  0  0  0
 31 32  1  0  0  0
 25 26  2  0  0  0
 26 20  1  0  0  0
 20 21  2  0  0  0
 20  1  1  0  0  0
  1  2  2  0  0  0
  1  6  1  0  0  0
  2  3  1  0  0  0
  2  4  1  0  0  0
  4  5  1  0  0  0
  4  7  1  0  0  0
  5  8  1  0  0  0
  5  6  2  0  0  0
  8  9  1  0  0  0
  8 13  2  0  0  0
  9 10  2  0  0  0
 10 11  1  0  0  0
 11 12  2  0  0  0
 12 13  1  0  0  0
  6 14  1  0  0  0
 14 15  1  0  0  0
 14 19  2  0  0  0
 15 16  2  0  0  0
 16 17  1  0  0  0
 17 18  2  0  0  0
 18 19  1  0  0  0
M  END
> <minimizedAffinity>
-9.02872

$$$$
