CHEMBL1095466


 27 30  0  0  0  0  0  0  0  0999 V2000
  -23.6559   -1.3428  -13.1956 C   0  0  0  0  0  0  0  0  0  0  0  0
  -24.1160   -1.4117  -11.8858 C   0  0  0  0  0  0  0  0  0  0  0  0
  -25.5365   -1.5711  -11.9179 C   0  0  0  0  0  0  0  0  0  0  0  0
  -26.6013   -1.6602  -10.9974 C   0  0  0  0  0  0  0  0  0  0  0  0
  -27.8631   -1.7419  -11.5031 N   0  0  0  0  0  0  0  0  0  0  0  0
  -28.0475   -1.7453  -12.8321 C   0  0  0  0  0  0  0  0  0  0  0  0
  -27.1102   -1.7270  -13.7875 N   0  0  0  0  0  0  0  0  0  0  0  0
  -25.8813   -1.6426  -13.2617 C   0  0  0  0  0  0  0  0  0  0  0  0
  -24.7382   -1.5955  -14.0055 N   0  0  0  0  0  0  0  0  0  0  0  0
  -24.7345   -1.6401  -15.0136 H   0  0  0  0  0  0  0  0  0  0  0  0
  -26.4357   -1.6199   -9.6053 N   0  0  0  0  0  0  0  0  0  0  0  0
  -25.5316   -1.3168   -9.2752 H   0  0  0  0  0  0  0  0  0  0  0  0
  -27.3292   -2.0962   -8.6266 C   0  0  0  0  0  0  0  0  0  0  0  0
  -27.8868   -3.3840   -8.7077 C   0  0  0  0  0  0  0  0  0  0  0  0
  -28.8218   -3.8370   -7.7752 C   0  0  0  0  0  0  0  0  0  0  0  0
  -29.2420   -2.9933   -6.7525 C   0  0  0  0  0  0  0  0  0  0  0  0
  -28.7145   -1.7066   -6.6694 C   0  0  0  0  0  0  0  0  0  0  0  0
  -29.3259   -0.5416   -5.3106 Br  0  0  0  0  0  0  0  0  0  0  0  0
  -27.7576   -1.2577   -7.5916 C   0  0  0  0  0  0  0  0  0  0  0  0
  -22.3323   -0.9551  -13.7809 C   0  0  0  0  0  0  0  0  0  0  0  0
  -19.8918    0.2063  -15.2400 C   0  0  0  0  0  0  0  0  0  0  0  0
  -20.9862    1.0625  -14.6630 C   0  0  0  0  0  0  0  0  0  0  0  0
  -20.8861    2.4571  -14.8291 C   0  0  0  0  0  0  0  0  0  0  0  0
  -21.8711    3.3142  -14.3425 C   0  0  0  0  0  0  0  0  0  0  0  0
  -22.9653    2.7928  -13.6648 C   0  0  0  0  0  0  0  0  0  0  0  0
  -23.0690    1.4157  -13.4683 C   0  0  0  0  0  0  0  0  0  0  0  0
  -22.0928    0.5293  -13.9638 C   0  0  0  0  0  0  0  0  0  0  0  0
 21 22  1  0  0  0
 22 23  1  0  0  0
 22 27  2  0  0  0
 23 24  2  0  0  0
 24 25  1  0  0  0
 25 26  2  0  0  0
 26 27  1  0  0  0
 27 20  1  0  0  0
 20  1  1  0  0  0
  1  2  2  0  0  0
  1  9  1  0  0  0
  2  3  1  0  0  0
  3  4  1  0  0  0
  3  8  2  0  0  0
  4 11  1  0  0  0
  4  5  2  0  0  0
 11 13  1  0  0  0
 11 12  1  0  0  0
 13 14  1  0  0  0
 13 19  2  0  0  0
 14 15  2  0  0  0
 15 16  1  0  0  0
 16 17  2  0  0  0
 17 18  1  0  0  0
 17 19  1  0  0  0
  5  6  1  0  0  0
  6  7  2  0  0  0
  7  8  1  0  0  0
  8  9  1  0  0  0
  9 10  1  0  0  0
M  END
> <minimizedAffinity>
-9.64015

$$$$
