CHEMBL2047243


 24 27  0  0  0  0  0  0  0  0999 V2000
  -27.2134   -3.0929   -9.4352 N   0  0  0  0  0  0  0  0  0  0  0  0
  -27.9474   -3.6328   -8.4001 C   0  0  0  0  0  0  0  0  0  0  0  0
  -28.6957   -2.8046   -7.6705 N   0  0  0  0  0  0  0  0  0  0  0  0
  -29.3741   -3.4094   -6.6844 C   0  0  0  0  0  0  0  0  0  0  0  0
  -29.3630   -4.7750   -6.4087 C   0  0  0  0  0  0  0  0  0  0  0  0
  -28.5694   -5.5402   -7.2269 C   0  0  0  0  0  0  0  0  0  0  0  0
  -27.8745   -4.9596   -8.2339 N   0  0  0  0  0  0  0  0  0  0  0  0
  -30.1839   -5.0305   -5.2410 C   0  0  0  0  0  0  0  0  0  0  0  0
  -30.4703   -6.1976   -4.5518 C   0  0  0  0  0  0  0  0  0  0  0  0
  -31.2991   -6.1244   -3.4257 C   0  0  0  0  0  0  0  0  0  0  0  0
  -31.8246   -4.8956   -2.9922 C   0  0  0  0  0  0  0  0  0  0  0  0
  -31.5297   -3.7156   -3.6742 C   0  0  0  0  0  0  0  0  0  0  0  0
  -30.7133   -3.7990   -4.7901 C   0  0  0  0  0  0  0  0  0  0  0  0
  -30.2352   -2.6679   -5.6749 C   0  0  0  0  0  0  0  0  0  0  0  0
  -27.6364   -2.2311   -9.7468 H   0  0  0  0  0  0  0  0  0  0  0  0
  -27.0361   -3.8069  -10.1283 H   0  0  0  0  0  0  0  0  0  0  0  0
  -28.4602   -6.9371   -7.0395 N   0  0  0  0  0  0  0  0  0  0  0  0
  -28.3503   -7.1409   -6.0529 H   0  0  0  0  0  0  0  0  0  0  0  0
  -29.2263   -7.9051   -7.7259 C   0  0  0  0  0  0  0  0  0  0  0  0
  -28.6628   -8.6797   -8.7530 C   0  0  0  0  0  0  0  0  0  0  0  0
  -29.4097   -9.6462   -9.4256 C   0  0  0  0  0  0  0  0  0  0  0  0
  -30.7335   -9.8738   -9.0628 C   0  0  0  0  0  0  0  0  0  0  0  0
  -31.2982   -9.1475   -8.0147 C   0  0  0  0  0  0  0  0  0  0  0  0
  -30.5440   -8.1789   -7.3416 C   0  0  0  0  0  0  0  0  0  0  0  0
  1  2  1  0  0  0
  1 15  1  0  0  0
  1 16  1  0  0  0
  2  3  1  0  0  0
  2  7  2  0  0  0
  3  4  2  0  0  0
  4  5  1  0  0  0
  4 14  1  0  0  0
  5  6  2  0  0  0
  5  8  1  0  0  0
  6 17  1  0  0  0
  6  7  1  0  0  0
 17 19  1  0  0  0
 17 18  1  0  0  0
 19 20  1  0  0  0
 19 24  2  0  0  0
 20 21  2  0  0  0
 21 22  1  0  0  0
 22 23  2  0  0  0
 23 24  1  0  0  0
  8  9  1  0  0  0
  8 13  2  0  0  0
  9 10  2  0  0  0
 10 11  1  0  0  0
 11 12  2  0  0  0
 12 13  1  0  0  0
 13 14  1  0  0  0
M  END
> <minimizedAffinity>
-7.86749

$$$$
