CHEMBL3946811


 49 54  0  0  0  0  0  0  0  0999 V2000
  -23.2509   -0.7806  -13.3769 C   0  0  0  0  0  0  0  0  0  0  0  0
  -22.7054   -0.8654  -12.0982 C   0  0  0  0  0  0  0  0  0  0  0  0
  -23.4851   -1.3077  -11.0167 C   0  0  0  0  0  0  0  0  0  0  0  0
  -24.8313   -1.6631  -11.1809 C   0  0  0  0  0  0  0  0  0  0  0  0
  -25.3687   -1.5961  -12.4695 C   0  0  0  0  0  0  0  0  0  0  0  0
  -24.5906   -1.1396  -13.5458 C   0  0  0  0  0  0  0  0  0  0  0  0
  -25.1809   -1.0434  -14.7462 F   0  0  0  0  0  0  0  0  0  0  0  0
  -25.6814   -2.0507  -10.1098 N   0  0  0  0  0  0  0  0  0  0  0  0
  -27.0455   -1.8211  -10.0287 C   0  0  0  0  0  0  0  0  0  0  0  0
  -27.7297   -1.1998  -10.8353 O   0  0  0  0  0  0  0  0  0  0  0  0
  -25.2816   -2.6003   -9.3527 H   0  0  0  0  0  0  0  0  0  0  0  0
  -27.7424   -2.4263   -8.8194 C   0  0  0  0  0  0  0  0  0  0  0  0
  -28.0483   -3.6882   -8.7120 N   0  0  0  0  0  0  0  0  0  0  0  0
  -28.6723   -3.7762   -7.4747 N   0  0  0  0  0  0  0  0  0  0  0  0
  -28.7132   -2.5038   -6.8672 C   0  0  0  0  0  0  0  0  0  0  0  0
  -29.1767   -2.1732   -5.7860 O   0  0  0  0  0  0  0  0  0  0  0  0
  -28.0995   -1.6574   -7.7555 N   0  0  0  0  0  0  0  0  0  0  0  0
  -27.8867   -0.2477   -7.5127 C   0  0  0  0  0  0  0  0  0  0  0  0
  -29.1582   -5.0054   -6.9666 C   0  0  0  0  0  0  0  0  0  0  0  0
  -30.1541   -5.7279   -7.6484 C   0  0  0  0  0  0  0  0  0  0  0  0
  -30.6400   -6.9476   -7.1597 C   0  0  0  0  0  0  0  0  0  0  0  0
  -30.1407   -7.4724   -5.9739 C   0  0  0  0  0  0  0  0  0  0  0  0
  -29.1594   -6.7717   -5.2760 C   0  0  0  0  0  0  0  0  0  0  0  0
  -28.6773   -5.5559   -5.7698 C   0  0  0  0  0  0  0  0  0  0  0  0
  -27.7356   -4.9338   -5.0423 F   0  0  0  0  0  0  0  0  0  0  0  0
  -22.4225   -0.2618  -14.3544 O   0  0  0  0  0  0  0  0  0  0  0  0
  -18.3520    0.8648  -15.0305 C   0  0  0  0  0  0  0  0  0  0  0  0
  -19.6927    0.4853  -14.8672 C   0  0  0  0  0  0  0  0  0  0  0  0
  -20.7007    1.4202  -14.5386 C   0  0  0  0  0  0  0  0  0  0  0  0
  -22.0600    1.0742  -14.3146 C   0  0  0  0  0  0  0  0  0  0  0  0
  -23.0047    2.0809  -14.1256 C   0  0  0  0  0  0  0  0  0  0  0  0
  -22.5527    3.3734  -14.0379 C   0  0  0  0  0  0  0  0  0  0  0  0
  -21.2569    3.7338  -14.1646 N   0  0  0  0  0  0  0  0  0  0  0  0
  -20.3479    2.7803  -14.4273 C   0  0  0  0  0  0  0  0  0  0  0  0
  -19.0247    3.1535  -14.6297 C   0  0  0  0  0  0  0  0  0  0  0  0
  -18.0268    2.2321  -14.9728 C   0  0  0  0  0  0  0  0  0  0  0  0
  -16.4359   -0.3460  -14.1953 C   0  0  0  0  0  0  0  0  0  0  0  0
  -17.3400   -0.0302  -15.2459 O   0  0  0  0  0  0  0  0  0  0  0  0
  -16.7986    2.8192  -15.2318 O   0  0  0  0  0  0  0  0  0  0  0  0
  -16.8514    4.0959  -15.8705 C   0  0  0  0  0  0  0  0  0  0  0  0
  -15.6008    4.4003  -16.7074 C   0  0  0  0  0  0  0  0  0  0  0  0
  -14.7772    3.1009  -16.7990 C   0  0  0  0  0  0  0  0  0  0  0  0
  -13.4824    3.0941  -16.1107 N   0  0  0  0  0  0  0  0  0  0  0  0
  -13.3325    4.1774  -15.1238 C   0  0  0  0  0  0  0  0  0  0  0  0
  -11.9473    4.1121  -14.4307 C   0  0  0  0  0  0  0  0  0  0  0  0
  -11.6260    2.8285  -13.7729 N   0  0  0  0  0  0  0  0  0  0  0  0
  -12.3346    2.6747  -12.5064 C   0  0  0  0  0  0  0  0  0  0  0  0
  -11.9140    1.7182  -14.7023 C   0  0  0  0  0  0  0  0  0  0  0  0
  -13.2829    1.7985  -15.4185 C   0  0  0  0  0  0  0  0  0  0  0  0
 37 38  1  0  0  0
 38 27  1  0  0  0
 27 28  1  0  0  0
 27 36  2  0  0  0
 28 29  2  0  0  0
 29 30  1  0  0  0
 29 34  1  0  0  0
 30 26  1  0  0  0
 30 31  2  0  0  0
 26  1  1  0  0  0
  1  2  1  0  0  0
  1  6  2  0  0  0
  2  3  2  0  0  0
  3  4  1  0  0  0
  4  8  1  0  0  0
  4  5  2  0  0  0
  8  9  1  0  0  0
  8 11  1  0  0  0
  9 10  2  0  0  0
  9 12  1  0  0  0
 12 13  2  0  0  0
 12 17  1  0  0  0
 13 14  1  0  0  0
 14 19  1  0  0  0
 14 15  1  0  0  0
 19 20  1  0  0  0
 19 24  2  0  0  0
 20 21  2  0  0  0
 21 22  1  0  0  0
 22 23  2  0  0  0
 23 24  1  0  0  0
 24 25  1  0  0  0
 15 16  2  0  0  0
 15 17  1  0  0  0
 17 18  1  0  0  0
  5  6  1  0  0  0
  6  7  1  0  0  0
 31 32  1  0  0  0
 32 33  2  0  0  0
 33 34  1  0  0  0
 34 35  2  0  0  0
 35 36  1  0  0  0
 36 39  1  0  0  0
 39 40  1  0  0  0
 40 41  1  0  0  0
 41 42  1  0  0  0
 42 43  1  0  0  0
 43 44  1  0  0  0
 43 49  1  0  0  0
 44 45  1  0  0  0
 45 46  1  0  0  0
 46 47  1  0  0  0
 46 48  1  0  0  0
 48 49  1  0  0  0
M  END
> <minimizedAffinity>
-10.28446

$$$$
