CHEMBL3938141


 25 28  0  0  0  0  0  0  0  0999 V2000
  -29.5299   -3.6949   -8.3357 O   0  0  0  0  0  0  0  0  0  0  0  0
  -29.4478   -4.0158   -7.1559 C   0  0  0  0  0  0  0  0  0  0  0  0
  -29.7137   -5.2998   -6.6906 N   0  0  0  0  0  0  0  0  0  0  0  0
  -29.8936   -6.3901   -7.6490 C   0  0  0  0  0  0  0  0  0  0  0  0
  -29.0199   -7.5803   -7.2581 C   0  0  0  0  0  0  0  0  0  0  0  0
  -29.0295   -7.8488   -5.7740 C   0  0  0  0  0  0  0  0  0  0  0  0
  -28.5177   -9.0274   -5.3754 N   0  0  0  0  0  0  0  0  0  0  0  0
  -28.4356   -9.2797   -4.0590 C   0  0  0  0  0  0  0  0  0  0  0  0
  -28.7980   -8.3951   -3.1172 N   0  0  0  0  0  0  0  0  0  0  0  0
  -29.3340   -7.2354   -3.5458 C   0  0  0  0  0  0  0  0  0  0  0  0
  -29.4739   -6.9005   -4.8743 C   0  0  0  0  0  0  0  0  0  0  0  0
  -30.1218   -5.6344   -5.3264 C   0  0  0  0  0  0  0  0  0  0  0  0
  -29.0044   -2.9886   -6.1886 C   0  0  0  0  0  0  0  0  0  0  0  0
  -29.8884   -2.0580   -5.6351 C   0  0  0  0  0  0  0  0  0  0  0  0
  -29.3965   -1.0721   -4.7863 C   0  0  0  0  0  0  0  0  0  0  0  0
  -28.0453   -1.0872   -4.4772 C   0  0  0  0  0  0  0  0  0  0  0  0
  -27.1756   -2.0116   -4.9465 N   0  0  0  0  0  0  0  0  0  0  0  0
  -27.6780   -2.9542   -5.7853 C   0  0  0  0  0  0  0  0  0  0  0  0
  -27.9702  -10.5148   -3.6021 N   0  0  0  0  0  0  0  0  0  0  0  0
  -28.7291  -11.1808   -3.6756 H   0  0  0  0  0  0  0  0  0  0  0  0
  -26.7081  -10.9158   -3.3137 C   0  0  0  0  0  0  0  0  0  0  0  0
  -25.5778  -10.0615   -3.4696 C   0  0  0  0  0  0  0  0  0  0  0  0
  -24.4052  -10.6673   -3.0705 C   0  0  0  0  0  0  0  0  0  0  0  0
  -24.6628  -12.2598   -2.5045 S   0  0  0  0  0  0  0  0  0  0  0  0
  -26.3428  -12.1420   -2.8001 C   0  0  0  0  0  0  0  0  0  0  0  0
  1  2  2  0  0  0
  2 13  1  0  0  0
  2  3  1  0  0  0
 13 14  1  0  0  0
 13 18  2  0  0  0
 14 15  2  0  0  0
 15 16  1  0  0  0
 16 17  2  0  0  0
 17 18  1  0  0  0
  3  4  1  0  0  0
  3 12  1  0  0  0
  4  5  1  0  0  0
  5  6  1  0  0  0
  6  7  1  0  0  0
  6 11  2  0  0  0
  7  8  2  0  0  0
  8 19  1  0  0  0
  8  9  1  0  0  0
 19 21  1  0  0  0
 19 20  1  0  0  0
 21 22  1  0  0  0
 21 25  2  0  0  0
 22 23  2  0  0  0
 23 24  1  0  0  0
 24 25  1  0  0  0
  9 10  2  0  0  0
 10 11  1  0  0  0
 11 12  1  0  0  0
M  END
> <minimizedAffinity>
-7.25986

$$$$
