CHEMBL4075266


 44 48  0  0  0  0  0  0  0  0999 V2000
  -28.2432   -8.2807   -6.2919 N   0  0  0  0  0  0  0  0  0  0  0  0
  -29.1023   -7.2764   -5.8976 C   0  0  0  0  0  0  0  0  0  0  0  0
  -29.1500   -6.7223   -4.8071 O   0  0  0  0  0  0  0  0  0  0  0  0
  -28.2453   -8.5400   -7.2729 H   0  0  0  0  0  0  0  0  0  0  0  0
  -25.3939  -10.3452   -3.9003 C   0  0  0  0  0  0  0  0  0  0  0  0
  -25.8093   -9.0542   -3.5645 C   0  0  0  0  0  0  0  0  0  0  0  0
  -26.7181   -8.3462   -4.3601 C   0  0  0  0  0  0  0  0  0  0  0  0
  -27.3354   -8.9546   -5.4507 C   0  0  0  0  0  0  0  0  0  0  0  0
  -27.0622  -10.2962   -5.7058 C   0  0  0  0  0  0  0  0  0  0  0  0
  -26.0799  -10.9682   -4.9622 C   0  0  0  0  0  0  0  0  0  0  0  0
  -22.8338  -10.6139   -6.1612 N   0  0  0  0  0  0  0  0  0  0  0  0
  -22.3764  -11.2191   -5.0570 C   0  0  0  0  0  0  0  0  0  0  0  0
  -21.1533  -11.7418   -5.0594 N   0  0  0  0  0  0  0  0  0  0  0  0
  -21.0193  -12.2480   -3.8341 N   0  0  0  0  0  0  0  0  0  0  0  0
  -22.1062  -12.0677   -3.0244 C   0  0  0  0  0  0  0  0  0  0  0  0
  -22.3043  -12.4659   -1.6999 C   0  0  0  0  0  0  0  0  0  0  0  0
  -23.5155  -12.1311   -1.1098 C   0  0  0  0  0  0  0  0  0  0  0  0
  -24.4826  -11.4305   -1.8273 C   0  0  0  0  0  0  0  0  0  0  0  0
  -24.3015  -11.0365   -3.1798 C   0  0  0  0  0  0  0  0  0  0  0  0
  -23.0497  -11.3733   -3.7921 C   0  0  0  0  0  0  0  0  0  0  0  0
  -22.2497  -10.6637   -6.9879 H   0  0  0  0  0  0  0  0  0  0  0  0
  -23.8210  -10.5113   -6.3558 H   0  0  0  0  0  0  0  0  0  0  0  0
  -20.1494  -12.7115   -3.6013 H   0  0  0  0  0  0  0  0  0  0  0  0
  -30.1105   -6.8783   -6.9258 C   0  0  0  0  0  0  0  0  0  0  0  0
  -31.4851   -7.5464   -6.9769 C   0  0  0  0  0  0  0  0  0  0  0  0
  -30.4577   -7.9069   -7.9991 C   0  0  0  0  0  0  0  0  0  0  0  0
  -30.0341   -5.4452   -7.3375 C   0  0  0  0  0  0  0  0  0  0  0  0
  -31.0063   -4.9504   -7.8886 O   0  0  0  0  0  0  0  0  0  0  0  0
  -28.8401   -4.8334   -7.0058 N   0  0  0  0  0  0  0  0  0  0  0  0
  -28.1850   -5.3894   -6.4621 H   0  0  0  0  0  0  0  0  0  0  0  0
  -28.4624   -3.5117   -7.3139 C   0  0  0  0  0  0  0  0  0  0  0  0
  -28.6143   -2.4568   -6.4151 C   0  0  0  0  0  0  0  0  0  0  0  0
  -28.2462   -1.1484   -6.7531 C   0  0  0  0  0  0  0  0  0  0  0  0
  -27.7209   -0.8998   -8.0277 C   0  0  0  0  0  0  0  0  0  0  0  0
  -27.5423   -1.9454   -8.9479 C   0  0  0  0  0  0  0  0  0  0  0  0
  -27.9225   -3.2510   -8.5796 C   0  0  0  0  0  0  0  0  0  0  0  0
  -28.4148   -0.0318   -5.7514 C   0  0  0  0  0  0  0  0  0  0  0  0
  -27.3165    0.1850   -4.9768 F   0  0  0  0  0  0  0  0  0  0  0  0
  -28.6891    1.1600   -6.3501 F   0  0  0  0  0  0  0  0  0  0  0  0
  -29.4410   -0.2637   -4.8876 F   0  0  0  0  0  0  0  0  0  0  0  0
  -26.9405   -1.6856  -10.3102 C   0  0  0  0  0  0  0  0  0  0  0  0
  -26.6413   -2.8206  -11.0000 F   0  0  0  0  0  0  0  0  0  0  0  0
  -27.7761   -0.9754  -11.1157 F   0  0  0  0  0  0  0  0  0  0  0  0
  -25.7853   -0.9701  -10.2458 F   0  0  0  0  0  0  0  0  0  0  0  0
 11 12  1  0  0  0
 11 21  1  0  0  0
 11 22  1  0  0  0
 12 13  2  0  0  0
 12 20  1  0  0  0
 13 14  1  0  0  0
 14 15  1  0  0  0
 14 23  1  0  0  0
 15 16  1  0  0  0
 15 20  2  0  0  0
 16 17  2  0  0  0
 17 18  1  0  0  0
 18 19  2  0  0  0
 19  5  1  0  0  0
 19 20  1  0  0  0
  5  6  1  0  0  0
  5 10  2  0  0  0
  6  7  2  0  0  0
  7  8  1  0  0  0
  8  1  1  0  0  0
  8  9  2  0  0  0
  1  2  1  0  0  0
  1  4  1  0  0  0
  2  3  2  0  0  0
  2 24  1  0  0  0
 24 27  1  0  0  0
 24 25  1  0  0  0
 24 26  1  0  0  0
 27 28  2  0  0  0
 27 29  1  0  0  0
 29 31  1  0  0  0
 29 30  1  0  0  0
 31 32  1  0  0  0
 31 36  2  0  0  0
 32 33  2  0  0  0
 33 37  1  0  0  0
 33 34  1  0  0  0
 37 38  1  0  0  0
 37 39  1  0  0  0
 37 40  1  0  0  0
 34 35  2  0  0  0
 35 41  1  0  0  0
 35 36  1  0  0  0
 41 42  1  0  0  0
 41 43  1  0  0  0
 41 44  1  0  0  0
 25 26  1  0  0  0
  9 10  1  0  0  0
M  END
> <minimizedAffinity>
-10.04312

$$$$
