CHEMBL45651


 45 50  0  0  0  0  0  0  0  0999 V2000
  -29.5152   -5.3057   -5.5598 C   0  0  0  0  0  0  0  0  0  0  0  0
  -29.1258   -6.5677   -5.7819 N   0  0  0  0  0  0  0  0  0  0  0  0
  -29.5641   -7.2385   -4.7087 N   0  0  0  0  0  0  0  0  0  0  0  0
  -30.3444   -6.4899   -3.8735 C   0  0  0  0  0  0  0  0  0  0  0  0
  -30.9837   -6.9071   -2.7669 N   0  0  0  0  0  0  0  0  0  0  0  0
  -31.6471   -5.8982   -2.1799 C   0  0  0  0  0  0  0  0  0  0  0  0
  -31.7227   -4.6135   -2.5747 N   0  0  0  0  0  0  0  0  0  0  0  0
  -31.0675   -4.2406   -3.6940 C   0  0  0  0  0  0  0  0  0  0  0  0
  -31.1949   -2.9103   -4.0597 N   0  0  0  0  0  0  0  0  0  0  0  0
  -30.3316   -5.2066   -4.3945 C   0  0  0  0  0  0  0  0  0  0  0  0
  -31.9335   -2.4578   -3.5340 H   0  0  0  0  0  0  0  0  0  0  0  0
  -31.1885   -2.7277   -5.0549 H   0  0  0  0  0  0  0  0  0  0  0  0
  -27.9186   -2.1945   -6.9583 C   0  0  0  0  0  0  0  0  0  0  0  0
  -28.4083   -3.1560   -6.0612 C   0  0  0  0  0  0  0  0  0  0  0  0
  -29.1225   -4.2772   -6.5048 C   0  0  0  0  0  0  0  0  0  0  0  0
  -29.4313   -4.3966   -7.8464 C   0  0  0  0  0  0  0  0  0  0  0  0
  -28.9304   -3.4680   -8.7460 C   0  0  0  0  0  0  0  0  0  0  0  0
  -28.1892   -2.3469   -8.3310 C   0  0  0  0  0  0  0  0  0  0  0  0
  -27.7011   -1.4052   -9.2892 N   0  0  0  0  0  0  0  0  0  0  0  0
  -26.7804   -1.7512  -10.2661 C   0  0  0  0  0  0  0  0  0  0  0  0
  -26.4628   -2.9180  -10.4826 O   0  0  0  0  0  0  0  0  0  0  0  0
  -26.2091   -0.6788  -10.9261 N   0  0  0  0  0  0  0  0  0  0  0  0
  -28.2663   -0.5777   -9.4218 H   0  0  0  0  0  0  0  0  0  0  0  0
  -26.3343    0.2333  -10.5163 H   0  0  0  0  0  0  0  0  0  0  0  0
  -25.1706   -0.8262  -11.8935 C   0  0  0  0  0  0  0  0  0  0  0  0
  -23.8187   -0.5629  -11.5974 C   0  0  0  0  0  0  0  0  0  0  0  0
  -22.8367   -0.5767  -12.5775 C   0  0  0  0  0  0  0  0  0  0  0  0
  -23.1831   -0.9106  -13.8825 C   0  0  0  0  0  0  0  0  0  0  0  0
  -24.4968   -1.2485  -14.1845 C   0  0  0  0  0  0  0  0  0  0  0  0
  -25.4900   -1.2101  -13.1967 C   0  0  0  0  0  0  0  0  0  0  0  0
  -27.5639   -0.5399   -5.2968 C   0  0  0  0  0  0  0  0  0  0  0  0
  -27.1797   -1.1045   -6.5563 O   0  0  0  0  0  0  0  0  0  0  0  0
  -29.1799   -8.6328   -4.5357 C   0  0  0  0  0  0  0  0  0  0  0  0
  -29.0682   -9.3267   -5.8938 C   0  0  0  0  0  0  0  0  0  0  0  0
  -27.7111   -9.1597   -6.5655 C   0  0  0  0  0  0  0  0  0  0  0  0
  -26.5179   -9.5604   -5.6736 C   0  0  0  0  0  0  0  0  0  0  0  0
  -26.5881   -8.7185   -4.3799 C   0  0  0  0  0  0  0  0  0  0  0  0
  -27.9318   -8.7813   -3.6403 C   0  0  0  0  0  0  0  0  0  0  0  0
  -26.2121  -10.9916   -5.5140 N   0  0  0  0  0  0  0  0  0  0  0  0
  -25.4196  -11.4065   -4.3501 C   0  0  0  0  0  0  0  0  0  0  0  0
  -23.8922  -11.4902   -4.6058 C   0  0  0  0  0  0  0  0  0  0  0  0
  -23.4978  -12.1796   -5.8522 N   0  0  0  0  0  0  0  0  0  0  0  0
  -22.1077  -11.8755   -6.1982 C   0  0  0  0  0  0  0  0  0  0  0  0
  -24.3758  -11.8667   -6.9926 C   0  0  0  0  0  0  0  0  0  0  0  0
  -25.8775  -11.8375   -6.6555 C   0  0  0  0  0  0  0  0  0  0  0  0
 31 32  1  0  0  0
 32 13  1  0  0  0
 13 14  1  0  0  0
 13 18  2  0  0  0
 14 15  2  0  0  0
 15  1  1  0  0  0
 15 16  1  0  0  0
  1  2  2  0  0  0
  1 10  1  0  0  0
  2  3  1  0  0  0
  3  4  1  0  0  0
 33 34  1  0  0  0
 33 38  1  0  0  0
 33  3  1  0  0  0
 34 35  1  0  0  0
 35 36  1  0  0  0
 36 37  1  0  0  0
 36 39  1  0  0  0
 39 40  1  0  0  0
 39 45  1  0  0  0
 40 41  1  0  0  0
 41 42  1  0  0  0
 42 43  1  0  0  0
 42 44  1  0  0  0
 44 45  1  0  0  0
 37 38  1  0  0  0
  4  5  1  0  0  0
  4 10  2  0  0  0
  5  6  2  0  0  0
  6  7  1  0  0  0
  7  8  2  0  0  0
  8  9  1  0  0  0
  8 10  1  0  0  0
  9 11  1  0  0  0
  9 12  1  0  0  0
 16 17  2  0  0  0
 17 18  1  0  0  0
 18 19  1  0  0  0
 19 20  1  0  0  0
 19 23  1  0  0  0
 20 21  2  0  0  0
 20 22  1  0  0  0
 22 25  1  0  0  0
 22 24  1  0  0  0
 25 26  1  0  0  0
 25 30  2  0  0  0
 26 27  2  0  0  0
 27 28  1  0  0  0
 28 29  2  0  0  0
 29 30  1  0  0  0
M  END
> <minimizedAffinity>
-8.70404

$$$$
