CHEMBL359947


 38 41  0  0  0  0  0  0  0  0999 V2000
  -26.1043   -1.1878  -12.2350 C   0  0  0  0  0  0  0  0  0  0  0  0
  -25.6986   -1.6426  -13.4900 C   0  0  0  0  0  0  0  0  0  0  0  0
  -24.5121   -1.1784  -14.0602 C   0  0  0  0  0  0  0  0  0  0  0  0
  -23.7139   -0.2192  -13.4134 C   0  0  0  0  0  0  0  0  0  0  0  0
  -24.1848    0.2792  -12.1867 C   0  0  0  0  0  0  0  0  0  0  0  0
  -25.3656   -0.1962  -11.5996 C   0  0  0  0  0  0  0  0  0  0  0  0
  -22.4540    0.2462  -14.0311 C   0  0  0  0  0  0  0  0  0  0  0  0
  -21.5294   -0.6942  -14.5217 C   0  0  0  0  0  0  0  0  0  0  0  0
  -20.2957   -0.3275  -15.0897 C   0  0  0  0  0  0  0  0  0  0  0  0
  -19.9063    1.0092  -15.1893 C   0  0  0  0  0  0  0  0  0  0  0  0
  -20.8317    1.9366  -14.7301 C   0  0  0  0  0  0  0  0  0  0  0  0
  -22.0750    1.5828  -14.1590 C   0  0  0  0  0  0  0  0  0  0  0  0
  -22.7885    2.8237  -13.7211 C   0  0  0  0  0  0  0  0  0  0  0  0
  -21.8740    3.8737  -14.0851 N   0  0  0  0  0  0  0  0  0  0  0  0
  -20.7308    3.3954  -14.6892 C   0  0  0  0  0  0  0  0  0  0  0  0
  -19.8123    4.0585  -15.1253 O   0  0  0  0  0  0  0  0  0  0  0  0
  -22.0491    4.8644  -13.9751 H   0  0  0  0  0  0  0  0  0  0  0  0
  -18.6546    1.3983  -15.7191 N   0  0  0  0  0  0  0  0  0  0  0  0
  -17.4538    1.4183  -15.0240 C   0  0  0  0  0  0  0  0  0  0  0  0
  -17.2930    1.1229  -13.8407 O   0  0  0  0  0  0  0  0  0  0  0  0
  -18.6556    1.8522  -16.6359 H   0  0  0  0  0  0  0  0  0  0  0  0
  -16.2497    1.8594  -15.8567 C   0  0  0  0  0  0  0  0  0  0  0  0
  -15.7303    3.1742  -15.4233 N   0  0  0  0  0  0  0  0  0  0  0  0
  -14.2697    3.2371  -15.5702 C   0  0  0  0  0  0  0  0  0  0  0  0
  -16.3432    4.2236  -16.2443 C   0  0  0  0  0  0  0  0  0  0  0  0
  -28.2806   -2.5394   -9.6767 N   0  0  0  0  0  0  0  0  0  0  0  0
  -27.1148   -2.0131  -10.2019 C   0  0  0  0  0  0  0  0  0  0  0  0
  -26.1113   -1.7401   -9.5497 O   0  0  0  0  0  0  0  0  0  0  0  0
  -27.2085   -1.7678  -11.5661 N   0  0  0  0  0  0  0  0  0  0  0  0
  -28.9425   -2.9242  -10.3331 H   0  0  0  0  0  0  0  0  0  0  0  0
  -28.1243   -1.4800  -11.8766 H   0  0  0  0  0  0  0  0  0  0  0  0
  -27.5919   -1.0941   -4.9934 C   0  0  0  0  0  0  0  0  0  0  0  0
  -28.1847   -2.0477   -5.9876 C   0  0  0  0  0  0  0  0  0  0  0  0
  -28.9634   -3.1209   -5.5433 C   0  0  0  0  0  0  0  0  0  0  0  0
  -29.5122   -4.0090   -6.4578 C   0  0  0  0  0  0  0  0  0  0  0  0
  -29.2871   -3.8305   -7.8205 C   0  0  0  0  0  0  0  0  0  0  0  0
  -28.5272   -2.7581   -8.2989 C   0  0  0  0  0  0  0  0  0  0  0  0
  -27.9712   -1.8697   -7.3679 C   0  0  0  0  0  0  0  0  0  0  0  0
 32 33  1  0  0  0
 33 34  1  0  0  0
 33 38  2  0  0  0
 34 35  2  0  0  0
 35 36  1  0  0  0
 36 37  2  0  0  0
 37 26  1  0  0  0
 37 38  1  0  0  0
 26 27  1  0  0  0
 26 30  1  0  0  0
 27 28  2  0  0  0
 27 29  1  0  0  0
 29  1  1  0  0  0
 29 31  1  0  0  0
  1  2  1  0  0  0
  1  6  2  0  0  0
  2  3  2  0  0  0
  3  4  1  0  0  0
  4  7  1  0  0  0
  4  5  2  0  0  0
  7  8  1  0  0  0
  7 12  2  0  0  0
  8  9  2  0  0  0
  9 10  1  0  0  0
 10 18  1  0  0  0
 10 11  2  0  0  0
 18 19  1  0  0  0
 18 21  1  0  0  0
 19 20  2  0  0  0
 19 22  1  0  0  0
 22 23  1  0  0  0
 23 24  1  0  0  0
 23 25  1  0  0  0
 11 12  1  0  0  0
 11 15  1  0  0  0
 12 13  1  0  0  0
 13 14  1  0  0  0
 14 15  1  0  0  0
 14 17  1  0  0  0
 15 16  2  0  0  0
  5  6  1  0  0  0
M  END
> <minimizedAffinity>
-10.74275

$$$$
