CHEMBL3397915


 36 38  0  0  0  0  0  0  0  0999 V2000
  -28.4245   -6.0749   -7.5133 N   0  0  0  0  0  0  0  0  0  0  0  0
  -29.2566   -4.9594   -7.5612 C   0  0  0  0  0  0  0  0  0  0  0  0
  -30.3364   -4.8955   -8.1390 O   0  0  0  0  0  0  0  0  0  0  0  0
  -27.5066   -5.9786   -7.1017 H   0  0  0  0  0  0  0  0  0  0  0  0
  -28.7588   -3.6960   -6.9407 C   0  0  0  0  0  0  0  0  0  0  0  0
  -27.9711   -2.8517   -7.7506 C   0  0  0  0  0  0  0  0  0  0  0  0
  -27.7529   -1.5206   -7.3934 C   0  0  0  0  0  0  0  0  0  0  0  0
  -28.3596   -1.0146   -6.2525 C   0  0  0  0  0  0  0  0  0  0  0  0
  -29.0960   -1.8788   -5.4150 C   0  0  0  0  0  0  0  0  0  0  0  0
  -29.6622   -1.3019   -4.2992 O   0  0  0  0  0  0  0  0  0  0  0  0
  -29.2751   -3.2557   -5.6881 C   0  0  0  0  0  0  0  0  0  0  0  0
  -29.5621   -0.3378   -4.4210 H   0  0  0  0  0  0  0  0  0  0  0  0
  -29.9121   -4.1911   -4.6978 C   0  0  0  0  0  0  0  0  0  0  0  0
  -31.2906   -4.1009   -4.3992 C   0  0  0  0  0  0  0  0  0  0  0  0
  -31.9151   -4.9589   -3.4842 C   0  0  0  0  0  0  0  0  0  0  0  0
  -31.1922   -5.9804   -2.8816 C   0  0  0  0  0  0  0  0  0  0  0  0
  -29.8461   -6.1180   -3.1881 C   0  0  0  0  0  0  0  0  0  0  0  0
  -29.1088   -7.1405   -2.6625 O   0  0  0  0  0  0  0  0  0  0  0  0
  -29.2072   -5.2251   -4.0524 C   0  0  0  0  0  0  0  0  0  0  0  0
  -29.7163   -7.7610   -2.2283 H   0  0  0  0  0  0  0  0  0  0  0  0
  -28.3218    0.2938   -5.8353 O   0  0  0  0  0  0  0  0  0  0  0  0
  -29.2248    1.1983   -6.4600 C   0  0  0  0  0  0  0  0  0  0  0  0
  -29.3496   -9.8917   -9.1462 C   0  0  0  0  0  0  0  0  0  0  0  0
  -28.1562   -9.2592   -9.4692 C   0  0  0  0  0  0  0  0  0  0  0  0
  -27.8521   -7.9988   -8.9507 C   0  0  0  0  0  0  0  0  0  0  0  0
  -28.7269   -7.3362   -8.0894 C   0  0  0  0  0  0  0  0  0  0  0  0
  -29.9472   -7.9498   -7.7925 C   0  0  0  0  0  0  0  0  0  0  0  0
  -30.2540   -9.2198   -8.3203 C   0  0  0  0  0  0  0  0  0  0  0  0
  -29.7327  -11.1263   -9.5923 O   0  0  0  0  0  0  0  0  0  0  0  0
  -29.8758  -12.1334   -8.5754 C   0  0  0  0  0  0  0  0  0  0  0  0
  -28.4949  -12.4659   -7.9865 C   0  0  0  0  0  0  0  0  0  0  0  0
  -28.3997  -12.4194   -6.5082 N   0  0  0  0  0  0  0  0  0  0  0  0
  -26.2132  -11.4076   -7.2780 C   0  0  0  0  0  0  0  0  0  0  0  0
  -27.0607  -11.9348   -6.1229 C   0  0  0  0  0  0  0  0  0  0  0  0
  -29.5039  -11.7029   -5.8510 C   0  0  0  0  0  0  0  0  0  0  0  0
  -29.1207  -10.4763   -5.0290 C   0  0  0  0  0  0  0  0  0  0  0  0
 33 34  1  0  0  0
 34 32  1  0  0  0
 32 35  1  0  0  0
 32 31  1  0  0  0
 35 36  1  0  0  0
 31 30  1  0  0  0
 30 29  1  0  0  0
 29 23  1  0  0  0
 23 24  1  0  0  0
 23 28  2  0  0  0
 24 25  2  0  0  0
 25 26  1  0  0  0
 26  1  1  0  0  0
 26 27  2  0  0  0
  1  2  1  0  0  0
  1  4  1  0  0  0
  2  3  2  0  0  0
  2  5  1  0  0  0
  5  6  1  0  0  0
  5 11  2  0  0  0
  6  7  2  0  0  0
  7  8  1  0  0  0
  8 21  1  0  0  0
  8  9  2  0  0  0
 21 22  1  0  0  0
  9 10  1  0  0  0
  9 11  1  0  0  0
 10 12  1  0  0  0
 11 13  1  0  0  0
 13 14  1  0  0  0
 13 19  2  0  0  0
 14 15  2  0  0  0
 15 16  1  0  0  0
 16 17  2  0  0  0
 17 18  1  0  0  0
 17 19  1  0  0  0
 18 20  1  0  0  0
 27 28  1  0  0  0
M  END
> <minimizedAffinity>
-7.37665

$$$$
