CHEMBL377481


 43 48  0  0  0  0  0  0  0  0999 V2000
  -13.0076    1.7803  -17.1099 C   0  0  0  0  0  0  0  0  0  0  0  0
  -11.9575    1.9919  -17.7028 O   0  0  0  0  0  0  0  0  0  0  0  0
  -13.6541    2.6763  -16.2389 N   0  0  0  0  0  0  0  0  0  0  0  0
  -13.1906    4.0209  -16.0024 C   0  0  0  0  0  0  0  0  0  0  0  0
  -12.5063    4.3592  -14.8348 C   0  0  0  0  0  0  0  0  0  0  0  0
  -11.9442    5.6397  -14.6762 C   0  0  0  0  0  0  0  0  0  0  0  0
  -12.0874    6.6263  -15.6667 C   0  0  0  0  0  0  0  0  0  0  0  0
  -11.5084    7.9002  -15.5331 C   0  0  0  0  0  0  0  0  0  0  0  0
  -11.6707    8.8729  -16.5235 C   0  0  0  0  0  0  0  0  0  0  0  0
  -12.4176    8.5820  -17.6616 C   0  0  0  0  0  0  0  0  0  0  0  0
  -12.9958    7.3193  -17.8119 C   0  0  0  0  0  0  0  0  0  0  0  0
  -12.8308    6.3293  -16.8283 C   0  0  0  0  0  0  0  0  0  0  0  0
  -13.3776    5.0370  -16.9695 C   0  0  0  0  0  0  0  0  0  0  0  0
  -14.7786    2.2433  -15.4731 C   0  0  0  0  0  0  0  0  0  0  0  0
  -14.5843    1.3447  -14.4418 C   0  0  0  0  0  0  0  0  0  0  0  0
  -15.7112    0.9174  -13.7937 C   0  0  0  0  0  0  0  0  0  0  0  0
  -16.9496    1.3010  -14.1387 N   0  0  0  0  0  0  0  0  0  0  0  0
  -17.0583    2.2061  -15.1225 C   0  0  0  0  0  0  0  0  0  0  0  0
  -16.0049    2.7079  -15.7836 N   0  0  0  0  0  0  0  0  0  0  0  0
  -18.3555    2.5191  -15.5191 N   0  0  0  0  0  0  0  0  0  0  0  0
  -18.3477    2.9722  -16.4210 H   0  0  0  0  0  0  0  0  0  0  0  0
  -19.5729    1.9478  -15.1417 C   0  0  0  0  0  0  0  0  0  0  0  0
  -20.5686    2.7562  -14.5882 C   0  0  0  0  0  0  0  0  0  0  0  0
  -21.7544    2.1987  -14.0919 C   0  0  0  0  0  0  0  0  0  0  0  0
  -22.0229    0.8274  -14.1596 C   0  0  0  0  0  0  0  0  0  0  0  0
  -21.0682    0.0546  -14.8252 C   0  0  0  0  0  0  0  0  0  0  0  0
  -19.8461    0.5910  -15.2667 C   0  0  0  0  0  0  0  0  0  0  0  0
  -23.1933    0.3064  -13.6417 N   0  0  0  0  0  0  0  0  0  0  0  0
  -23.9417    0.9602  -12.5566 C   0  0  0  0  0  0  0  0  0  0  0  0
  -24.6309   -0.1326  -11.7034 C   0  0  0  0  0  0  0  0  0  0  0  0
  -25.5302   -1.0020  -12.4999 N   0  0  0  0  0  0  0  0  0  0  0  0
  -26.0898   -2.0583  -11.6601 C   0  0  0  0  0  0  0  0  0  0  0  0
  -24.7693   -1.5876  -13.6306 C   0  0  0  0  0  0  0  0  0  0  0  0
  -24.0716   -0.5156  -14.5018 C   0  0  0  0  0  0  0  0  0  0  0  0
  -13.7393    0.5900  -17.2856 O   0  0  0  0  0  0  0  0  0  0  0  0
  -12.7538   -1.6186  -15.5649 C   0  0  0  0  0  0  0  0  0  0  0  0
  -12.7714   -1.6593  -17.0677 C   0  0  0  0  0  0  0  0  0  0  0  0
  -12.4773   -2.8807  -17.6957 C   0  0  0  0  0  0  0  0  0  0  0  0
  -12.6341   -3.0399  -19.0726 C   0  0  0  0  0  0  0  0  0  0  0  0
  -13.0871   -1.9780  -19.8501 C   0  0  0  0  0  0  0  0  0  0  0  0
  -13.3716   -0.7362  -19.2639 C   0  0  0  0  0  0  0  0  0  0  0  0
  -13.8879    0.3756  -20.1312 C   0  0  0  0  0  0  0  0  0  0  0  0
  -13.1992   -0.5849  -17.8710 C   0  0  0  0  0  0  0  0  0  0  0  0
 36 37  1  0  0  0
 37 38  1  0  0  0
 37 43  2  0  0  0
 38 39  2  0  0  0
 39 40  1  0  0  0
 40 41  2  0  0  0
 41 42  1  0  0  0
 41 43  1  0  0  0
 43 35  1  0  0  0
 35  1  1  0  0  0
  1  2  2  0  0  0
  1  3  1  0  0  0
  3  4  1  0  0  0
  3 14  1  0  0  0
  4  5  1  0  0  0
  4 13  2  0  0  0
  5  6  2  0  0  0
  6  7  1  0  0  0
  7  8  1  0  0  0
  7 12  2  0  0  0
  8  9  2  0  0  0
  9 10  1  0  0  0
 10 11  2  0  0  0
 11 12  1  0  0  0
 12 13  1  0  0  0
 14 15  1  0  0  0
 14 19  2  0  0  0
 15 16  2  0  0  0
 16 17  1  0  0  0
 17 18  2  0  0  0
 18 20  1  0  0  0
 18 19  1  0  0  0
 20 22  1  0  0  0
 20 21  1  0  0  0
 22 23  1  0  0  0
 22 27  2  0  0  0
 23 24  2  0  0  0
 24 25  1  0  0  0
 25 28  1  0  0  0
 25 26  2  0  0  0
 28 29  1  0  0  0
 28 34  1  0  0  0
 29 30  1  0  0  0
 30 31  1  0  0  0
 31 32  1  0  0  0
 31 33  1  0  0  0
 33 34  1  0  0  0
 26 27  1  0  0  0
M  END
> <minimizedAffinity>
-8.65938

$$$$
