CHEMBL3403518


 23 25  0  0  0  0  0  0  0  0999 V2000
  -17.1621    2.5182  -15.8142 N   0  0  0  0  0  0  0  0  0  0  0  0
  -16.8435    3.9486  -15.8246 C   0  0  0  0  0  0  0  0  0  0  0  0
  -13.1817    0.9508  -18.0765 C   0  0  0  0  0  0  0  0  0  0  0  0
  -14.1147    0.8333  -16.9096 C   0  0  0  0  0  0  0  0  0  0  0  0
  -15.1874    1.6572  -16.8977 N   0  0  0  0  0  0  0  0  0  0  0  0
  -16.0562    1.6456  -15.8480 C   0  0  0  0  0  0  0  0  0  0  0  0
  -15.7993    0.7135  -14.8259 C   0  0  0  0  0  0  0  0  0  0  0  0
  -16.4125    0.3101  -13.6065 C   0  0  0  0  0  0  0  0  0  0  0  0
  -15.6095   -0.6680  -13.0665 C   0  0  0  0  0  0  0  0  0  0  0  0
  -15.6795   -1.4581  -11.8223 C   0  0  0  0  0  0  0  0  0  0  0  0
  -14.5522   -0.9118  -13.8889 O   0  0  0  0  0  0  0  0  0  0  0  0
  -14.6694   -0.0780  -14.9629 C   0  0  0  0  0  0  0  0  0  0  0  0
  -13.7895   -0.0638  -15.9687 N   0  0  0  0  0  0  0  0  0  0  0  0
  -18.4487    2.2163  -15.3031 C   0  0  0  0  0  0  0  0  0  0  0  0
  -19.2066    3.1712  -14.6016 C   0  0  0  0  0  0  0  0  0  0  0  0
  -20.4910    2.8807  -14.1232 C   0  0  0  0  0  0  0  0  0  0  0  0
  -21.0564    1.6368  -14.3756 C   0  0  0  0  0  0  0  0  0  0  0  0
  -20.3064    0.6628  -15.0269 C   0  0  0  0  0  0  0  0  0  0  0  0
  -19.0198    0.9496  -15.4871 C   0  0  0  0  0  0  0  0  0  0  0  0
  -22.3233    1.2547  -14.0453 O   0  0  0  0  0  0  0  0  0  0  0  0
  -22.5430   -0.1191  -13.7019 C   0  0  0  0  0  0  0  0  0  0  0  0
  -22.6731   -0.3226  -12.1910 C   0  0  0  0  0  0  0  0  0  0  0  0
  -23.8590   -0.5058  -14.3755 C   0  0  0  0  0  0  0  0  0  0  0  0
  3  4  1  0  0  0
  4  5  1  0  0  0
  4 13  2  0  0  0
  5  6  2  0  0  0
  6  1  1  0  0  0
  6  7  1  0  0  0
  1  2  1  0  0  0
  1 14  1  0  0  0
 14 15  1  0  0  0
 14 19  2  0  0  0
 15 16  2  0  0  0
 16 17  1  0  0  0
 17 20  1  0  0  0
 17 18  2  0  0  0
 20 21  1  0  0  0
 21 22  1  0  0  0
 21 23  1  0  0  0
 18 19  1  0  0  0
  7  8  1  0  0  0
  7 12  2  0  0  0
  8  9  2  0  0  0
  9 10  1  0  0  0
  9 11  1  0  0  0
 11 12  1  0  0  0
 12 13  1  0  0  0
M  END
> <minimizedAffinity>
-7.75291

$$$$
