CHEMBL216105


 38 43  0  0  0  0  0  0  0  0999 V2000
  -29.4036   -5.3789   -7.1468 C   0  0  0  0  0  0  0  0  0  0  0  0
  -28.9269   -6.5541   -7.7047 C   0  0  0  0  0  0  0  0  0  0  0  0
  -28.6822   -7.6856   -6.9386 C   0  0  0  0  0  0  0  0  0  0  0  0
  -28.9258   -7.6475   -5.5319 C   0  0  0  0  0  0  0  0  0  0  0  0
  -28.6868   -8.6799   -4.5897 C   0  0  0  0  0  0  0  0  0  0  0  0
  -29.0202   -8.5618   -3.2877 N   0  0  0  0  0  0  0  0  0  0  0  0
  -29.5911   -7.4182   -2.9158 C   0  0  0  0  0  0  0  0  0  0  0  0
  -29.8319   -6.3646   -3.6991 N   0  0  0  0  0  0  0  0  0  0  0  0
  -29.5014   -6.4825   -4.9859 C   0  0  0  0  0  0  0  0  0  0  0  0
  -29.7258   -5.3734   -5.7951 C   0  0  0  0  0  0  0  0  0  0  0  0
  -28.0555   -9.8743   -5.0004 N   0  0  0  0  0  0  0  0  0  0  0  0
  -27.9956   -9.9323   -6.0125 H   0  0  0  0  0  0  0  0  0  0  0  0
  -27.0983  -10.6413   -4.3116 C   0  0  0  0  0  0  0  0  0  0  0  0
  -27.4662  -11.6274   -3.3721 C   0  0  0  0  0  0  0  0  0  0  0  0
  -29.1336  -12.0211   -3.1169 Cl  0  0  0  0  0  0  0  0  0  0  0  0
  -26.5046  -12.3213   -2.6086 C   0  0  0  0  0  0  0  0  0  0  0  0
  -25.1453  -12.0490   -2.7669 C   0  0  0  0  0  0  0  0  0  0  0  0
  -24.7926  -11.1149   -3.7161 C   0  0  0  0  0  0  0  0  0  0  0  0
  -25.7315  -10.4414   -4.4711 C   0  0  0  0  0  0  0  0  0  0  0  0
  -25.1410   -9.5260   -5.2960 O   0  0  0  0  0  0  0  0  0  0  0  0
  -23.7497   -9.7881   -5.0620 C   0  0  0  0  0  0  0  0  0  0  0  0
  -23.5186  -10.7226   -3.9900 O   0  0  0  0  0  0  0  0  0  0  0  0
  -29.5672   -4.2137   -7.8524 O   0  0  0  0  0  0  0  0  0  0  0  0
  -29.3961   -3.0277   -7.0573 C   0  0  0  0  0  0  0  0  0  0  0  0
  -28.4276    1.0528   -4.7660 C   0  0  0  0  0  0  0  0  0  0  0  0
  -27.8154   -0.0517   -5.5081 N   0  0  0  0  0  0  0  0  0  0  0  0
  -28.0258   -1.3190   -4.7946 C   0  0  0  0  0  0  0  0  0  0  0  0
  -27.4129   -2.5031   -5.5470 C   0  0  0  0  0  0  0  0  0  0  0  0
  -27.9260   -2.6035   -6.9855 C   0  0  0  0  0  0  0  0  0  0  0  0
  -27.7288   -1.2475   -7.6827 C   0  0  0  0  0  0  0  0  0  0  0  0
  -28.3267   -0.0850   -6.8832 C   0  0  0  0  0  0  0  0  0  0  0  0
  -28.1403   -8.8086   -7.5139 O   0  0  0  0  0  0  0  0  0  0  0  0
  -28.2070   -9.0101   -8.9391 C   0  0  0  0  0  0  0  0  0  0  0  0
  -29.3730   -9.9166   -9.3866 C   0  0  0  0  0  0  0  0  0  0  0  0
  -29.3787  -10.0910  -10.8985 C   0  0  0  0  0  0  0  0  0  0  0  0
  -28.1001  -10.5192  -11.3639 O   0  0  0  0  0  0  0  0  0  0  0  0
  -27.0842   -9.5457  -11.1228 C   0  0  0  0  0  0  0  0  0  0  0  0
  -26.8788   -9.3619   -9.6279 C   0  0  0  0  0  0  0  0  0  0  0  0
 25 26  1  0  0  0
 26 27  1  0  0  0
 26 31  1  0  0  0
 27 28  1  0  0  0
 28 29  1  0  0  0
 29 24  1  0  0  0
 29 30  1  0  0  0
 24 23  1  0  0  0
 23  1  1  0  0  0
  1  2  1  0  0  0
  1 10  2  0  0  0
  2  3  2  0  0  0
  3 32  1  0  0  0
  3  4  1  0  0  0
 32 33  1  0  0  0
 33 34  1  0  0  0
 33 38  1  0  0  0
 34 35  1  0  0  0
 35 36  1  0  0  0
 36 37  1  0  0  0
 37 38  1  0  0  0
  4  5  1  0  0  0
  4  9  2  0  0  0
  5 11  1  0  0  0
  5  6  2  0  0  0
 11 13  1  0  0  0
 11 12  1  0  0  0
 13 14  1  0  0  0
 13 19  2  0  0  0
 14 15  1  0  0  0
 14 16  2  0  0  0
 16 17  1  0  0  0
 17 18  2  0  0  0
 18 19  1  0  0  0
 18 22  1  0  0  0
 19 20  1  0  0  0
 20 21  1  0  0  0
 21 22  1  0  0  0
  6  7  1  0  0  0
  7  8  2  0  0  0
  8  9  1  0  0  0
  9 10  1  0  0  0
 30 31  1  0  0  0
M  END
> <minimizedAffinity>
-8.40821

$$$$
