CHEMBL318733


 29 32  0  0  0  0  0  0  0  0999 V2000
  -30.2083   -9.0449   -7.0506 C   0  0  0  0  0  0  0  0  0  0  0  0
  -30.5289   -8.0968   -6.1321 O   0  0  0  0  0  0  0  0  0  0  0  0
  -29.9005   -6.9636   -6.5561 C   0  0  0  0  0  0  0  0  0  0  0  0
  -29.1840   -7.1214   -7.6536 N   0  0  0  0  0  0  0  0  0  0  0  0
  -29.3657   -8.4517   -7.9750 C   0  0  0  0  0  0  0  0  0  0  0  0
  -30.1514   -5.7771   -5.7571 C   0  0  0  0  0  0  0  0  0  0  0  0
  -30.8518   -5.8564   -4.5653 C   0  0  0  0  0  0  0  0  0  0  0  0
  -31.1028   -4.7950   -3.7637 N   0  0  0  0  0  0  0  0  0  0  0  0
  -30.6260   -3.5934   -4.1769 C   0  0  0  0  0  0  0  0  0  0  0  0
  -29.9023   -3.3720   -5.3528 C   0  0  0  0  0  0  0  0  0  0  0  0
  -29.6777   -4.5122   -6.1393 C   0  0  0  0  0  0  0  0  0  0  0  0
  -29.3944   -2.0388   -5.7419 C   0  0  0  0  0  0  0  0  0  0  0  0
  -28.3169   -1.8926   -6.6409 C   0  0  0  0  0  0  0  0  0  0  0  0
  -27.8237   -0.6329   -7.0038 C   0  0  0  0  0  0  0  0  0  0  0  0
  -28.4044    0.5156   -6.4796 C   0  0  0  0  0  0  0  0  0  0  0  0
  -29.4648    0.3924   -5.5943 C   0  0  0  0  0  0  0  0  0  0  0  0
  -30.0278    1.4954   -5.0836 F   0  0  0  0  0  0  0  0  0  0  0  0
  -29.9551   -0.8581   -5.2212 C   0  0  0  0  0  0  0  0  0  0  0  0
  -28.7743   -9.0911   -9.1338 C   0  0  0  0  0  0  0  0  0  0  0  0
  -29.5466   -9.8604  -10.0160 C   0  0  0  0  0  0  0  0  0  0  0  0
  -28.9929  -10.3589  -11.1952 C   0  0  0  0  0  0  0  0  0  0  0  0
  -27.6501  -10.1270  -11.4831 C   0  0  0  0  0  0  0  0  0  0  0  0
  -26.8537   -9.4292  -10.5760 C   0  0  0  0  0  0  0  0  0  0  0  0
  -27.4111   -8.9191   -9.4008 C   0  0  0  0  0  0  0  0  0  0  0  0
  -32.4688  -11.9785   -7.0784 C   0  0  0  0  0  0  0  0  0  0  0  0
  -32.0357  -10.5730   -7.3997 C   0  0  0  0  0  0  0  0  0  0  0  0
  -32.7974   -9.7994   -7.9748 O   0  0  0  0  0  0  0  0  0  0  0  0
  -30.7665  -10.2953   -6.9379 N   0  0  0  0  0  0  0  0  0  0  0  0
  -30.2541  -10.9962   -6.4180 H   0  0  0  0  0  0  0  0  0  0  0  0
 25 26  1  0  0  0
 26 27  2  0  0  0
 26 28  1  0  0  0
 28  1  1  0  0  0
 28 29  1  0  0  0
  1  2  1  0  0  0
  1  5  2  0  0  0
  2  3  1  0  0  0
  3  6  1  0  0  0
  3  4  2  0  0  0
  6  7  1  0  0  0
  6 11  2  0  0  0
  7  8  2  0  0  0
  8  9  1  0  0  0
  9 10  2  0  0  0
 10 12  1  0  0  0
 10 11  1  0  0  0
 12 13  1  0  0  0
 12 18  2  0  0  0
 13 14  2  0  0  0
 14 15  1  0  0  0
 15 16  2  0  0  0
 16 17  1  0  0  0
 16 18  1  0  0  0
  4  5  1  0  0  0
  5 19  1  0  0  0
 19 20  1  0  0  0
 19 24  2  0  0  0
 20 21  2  0  0  0
 21 22  1  0  0  0
 22 23  2  0  0  0
 23 24  1  0  0  0
M  END
> <minimizedAffinity>
-9.79885

$$$$
