CHEMBL261508


 31 32  0  0  0  0  0  0  0  0999 V2000
  -28.6142   -3.8361   -8.3195 C   0  0  0  0  0  0  0  0  0  0  0  0
  -27.8929   -2.7037   -8.1479 C   0  0  0  0  0  0  0  0  0  0  0  0
  -29.7047   -6.8929   -6.3467 C   0  0  0  0  0  0  0  0  0  0  0  0
  -29.2328   -6.0651   -7.3840 C   0  0  0  0  0  0  0  0  0  0  0  0
  -29.1227   -4.6813   -7.2162 C   0  0  0  0  0  0  0  0  0  0  0  0
  -29.5178   -4.1101   -5.9982 C   0  0  0  0  0  0  0  0  0  0  0  0
  -30.0810   -4.8861   -4.9608 C   0  0  0  0  0  0  0  0  0  0  0  0
  -30.1591   -6.2821   -5.1605 C   0  0  0  0  0  0  0  0  0  0  0  0
  -30.6853   -7.1183   -4.2082 O   0  0  0  0  0  0  0  0  0  0  0  0
  -30.6932   -6.6785   -3.3463 H   0  0  0  0  0  0  0  0  0  0  0  0
  -30.1574   -8.8807   -7.8599 C   0  0  0  0  0  0  0  0  0  0  0  0
  -29.6829   -8.4147   -6.4836 C   0  0  0  0  0  0  0  0  0  0  0  0
  -28.3119   -9.0226   -6.1558 C   0  0  0  0  0  0  0  0  0  0  0  0
  -30.5688   -4.2218   -3.6734 C   0  0  0  0  0  0  0  0  0  0  0  0
  -30.0996   -2.7647   -3.5986 C   0  0  0  0  0  0  0  0  0  0  0  0
  -32.0877   -4.2839   -3.4560 C   0  0  0  0  0  0  0  0  0  0  0  0
  -27.4528   -1.9273   -9.3428 C   0  0  0  0  0  0  0  0  0  0  0  0
  -26.4434   -1.2270   -9.3037 O   0  0  0  0  0  0  0  0  0  0  0  0
  -28.2290   -2.0388  -10.4735 N   0  0  0  0  0  0  0  0  0  0  0  0
  -29.0311   -2.6563  -10.5027 H   0  0  0  0  0  0  0  0  0  0  0  0
  -27.8866   -1.3371  -11.7005 C   0  0  0  0  0  0  0  0  0  0  0  0
  -27.4325   -2.2972  -12.8016 C   0  0  0  0  0  0  0  0  0  0  0  0
  -26.5221   -1.5836  -13.8077 C   0  0  0  0  0  0  0  0  0  0  0  0
  -25.1134   -1.3617  -13.3065 C   0  0  0  0  0  0  0  0  0  0  0  0
  -24.2323   -0.5215  -14.0028 C   0  0  0  0  0  0  0  0  0  0  0  0
  -22.9500   -0.2690  -13.5091 C   0  0  0  0  0  0  0  0  0  0  0  0
  -22.5331   -0.8528  -12.3150 C   0  0  0  0  0  0  0  0  0  0  0  0
  -23.3972   -1.6933  -11.6150 C   0  0  0  0  0  0  0  0  0  0  0  0
  -24.6840   -1.9443  -12.1068 C   0  0  0  0  0  0  0  0  0  0  0  0
  -27.5645   -2.2724   -6.7279 C   0  0  0  0  0  0  0  0  0  0  0  0
  -27.2922   -1.9144   -5.5499 N   0  0  0  0  0  0  0  0  0  0  0  0
 11 12  1  0  0  0
 12 13  1  0  0  0
 12  3  1  0  0  0
  3  4  1  0  0  0
  3  8  2  0  0  0
  4  5  2  0  0  0
  5  1  1  0  0  0
  5  6  1  0  0  0
  1  2  2  0  0  0
  2 30  1  0  0  0
  2 17  1  0  0  0
 30 31  3  0  0  0
 17 18  2  0  0  0
 17 19  1  0  0  0
 19 21  1  0  0  0
 19 20  1  0  0  0
 21 22  1  0  0  0
 22 23  1  0  0  0
 23 24  1  0  0  0
 24 25  1  0  0  0
 24 29  2  0  0  0
 25 26  2  0  0  0
 26 27  1  0  0  0
 27 28  2  0  0  0
 28 29  1  0  0  0
  6  7  2  0  0  0
  7 14  1  0  0  0
  7  8  1  0  0  0
 14 15  1  0  0  0
 14 16  1  0  0  0
  8  9  1  0  0  0
  9 10  1  0  0  0
M  END
> <minimizedAffinity>
-9.19651

$$$$
