CHEMBL271087


 43 47  0  0  0  0  0  0  0  0999 V2000
  -25.3649   -1.2848  -11.8581 C   0  0  0  0  0  0  0  0  0  0  0  0
  -26.6895   -1.6775  -11.4314 C   0  0  0  0  0  0  0  0  0  0  0  0
  -27.4764   -1.7808  -12.5546 C   0  0  0  0  0  0  0  0  0  0  0  0
  -26.7143   -1.4708  -13.6409 N   0  0  0  0  0  0  0  0  0  0  0  0
  -27.1839   -1.4185  -14.8944 N   0  0  0  0  0  0  0  0  0  0  0  0
  -26.2858   -1.1323  -15.7763 C   0  0  0  0  0  0  0  0  0  0  0  0
  -24.9572   -0.9321  -15.5426 N   0  0  0  0  0  0  0  0  0  0  0  0
  -24.4709   -0.9849  -14.3374 C   0  0  0  0  0  0  0  0  0  0  0  0
  -25.4198   -1.2270  -13.2609 C   0  0  0  0  0  0  0  0  0  0  0  0
  -27.2230   -1.9300  -10.0508 C   0  0  0  0  0  0  0  0  0  0  0  0
  -27.8100   -3.0519   -9.6790 N   0  0  0  0  0  0  0  0  0  0  0  0
  -28.0493   -2.9631   -8.3322 N   0  0  0  0  0  0  0  0  0  0  0  0
  -27.6464   -1.7715   -7.9659 C   0  0  0  0  0  0  0  0  0  0  0  0
  -27.1275   -1.0443   -8.9989 O   0  0  0  0  0  0  0  0  0  0  0  0
  -27.6097   -1.1969   -6.7546 N   0  0  0  0  0  0  0  0  0  0  0  0
  -26.8573   -1.4863   -6.1406 H   0  0  0  0  0  0  0  0  0  0  0  0
  -28.8651   -0.8364   -6.0987 C   0  0  0  0  0  0  0  0  0  0  0  0
  -28.9882    0.7038   -5.8424 C   0  0  0  0  0  0  0  0  0  0  0  0
  -30.4605    1.1063   -5.6571 C   0  0  0  0  0  0  0  0  0  0  0  0
  -28.2081    1.0801   -4.5729 C   0  0  0  0  0  0  0  0  0  0  0  0
  -28.4389    1.5038   -6.9531 N   0  0  0  0  0  0  0  0  0  0  0  0
  -28.9259    1.2607   -7.8158 H   0  0  0  0  0  0  0  0  0  0  0  0
  -27.4666    1.2347   -7.1171 H   0  0  0  0  0  0  0  0  0  0  0  0
  -22.9531   -1.8959  -11.2567 C   0  0  0  0  0  0  0  0  0  0  0  0
  -24.1735   -1.0222  -10.9563 C   0  0  0  0  0  0  0  0  0  0  0  0
  -23.8543    0.4710  -10.8520 C   0  0  0  0  0  0  0  0  0  0  0  0
  -23.1119   -0.8494  -14.1238 N   0  0  0  0  0  0  0  0  0  0  0  0
  -22.5545   -1.6682  -14.3125 H   0  0  0  0  0  0  0  0  0  0  0  0
  -22.3054    0.3063  -14.2542 C   0  0  0  0  0  0  0  0  0  0  0  0
  -20.9739    0.3147  -14.6786 C   0  0  0  0  0  0  0  0  0  0  0  0
  -20.2309    1.5109  -14.7403 C   0  0  0  0  0  0  0  0  0  0  0  0
  -20.8491    2.7113  -14.3843 C   0  0  0  0  0  0  0  0  0  0  0  0
  -20.1791    3.8733  -14.4146 F   0  0  0  0  0  0  0  0  0  0  0  0
  -22.1817    2.7393  -13.9936 C   0  0  0  0  0  0  0  0  0  0  0  0
  -22.8917    1.5470  -13.9435 C   0  0  0  0  0  0  0  0  0  0  0  0
  -24.1775    1.5758  -13.5566 F   0  0  0  0  0  0  0  0  0  0  0  0
  -18.8141    1.4266  -15.1941 C   0  0  0  0  0  0  0  0  0  0  0  0
  -18.2116    0.3604  -15.0996 O   0  0  0  0  0  0  0  0  0  0  0  0
  -18.2366    2.5660  -15.7200 N   0  0  0  0  0  0  0  0  0  0  0  0
  -18.7783    3.4210  -15.7930 H   0  0  0  0  0  0  0  0  0  0  0  0
  -16.9037    2.5567  -16.2329 C   0  0  0  0  0  0  0  0  0  0  0  0
  -15.8228    3.3514  -15.5554 C   0  0  0  0  0  0  0  0  0  0  0  0
  -16.3188    3.7636  -16.9103 C   0  0  0  0  0  0  0  0  0  0  0  0
 24 25  1  0  0  0
 25 26  1  0  0  0
 25  1  1  0  0  0
  1  2  1  0  0  0
  1  9  2  0  0  0
  2 10  1  0  0  0
  2  3  2  0  0  0
 10 11  2  0  0  0
 10 14  1  0  0  0
 11 12  1  0  0  0
 12 13  2  0  0  0
 13 15  1  0  0  0
 13 14  1  0  0  0
 15 17  1  0  0  0
 15 16  1  0  0  0
 17 18  1  0  0  0
 18 19  1  0  0  0
 18 20  1  0  0  0
 18 21  1  0  0  0
 21 22  1  0  0  0
 21 23  1  0  0  0
  3  4  1  0  0  0
  4  5  1  0  0  0
  4  9  1  0  0  0
  5  6  2  0  0  0
  6  7  1  0  0  0
  7  8  2  0  0  0
  8 27  1  0  0  0
  8  9  1  0  0  0
 27 29  1  0  0  0
 27 28  1  0  0  0
 29 30  1  0  0  0
 29 35  2  0  0  0
 30 31  2  0  0  0
 31 37  1  0  0  0
 31 32  1  0  0  0
 37 38  2  0  0  0
 37 39  1  0  0  0
 39 41  1  0  0  0
 39 40  1  0  0  0
 41 42  1  0  0  0
 41 43  1  0  0  0
 42 43  1  0  0  0
 32 33  1  0  0  0
 32 34  2  0  0  0
 34 35  1  0  0  0
 35 36  1  0  0  0
M  END
> <minimizedAffinity>
-8.16230

$$$$
