CHEMBL3958778


 40 44  0  0  0  0  0  0  0  0999 V2000
  -29.0516   -5.5337   -7.1709 C   0  0  0  0  0  0  0  0  0  0  0  0
  -28.8288   -4.4583   -8.0434 C   0  0  0  0  0  0  0  0  0  0  0  0
  -28.4254   -3.1843   -7.5614 C   0  0  0  0  0  0  0  0  0  0  0  0
  -28.1735   -2.0335   -8.3243 C   0  0  0  0  0  0  0  0  0  0  0  0
  -27.7513   -0.8765   -7.7697 N   0  0  0  0  0  0  0  0  0  0  0  0
  -27.5926   -0.8541   -6.4541 C   0  0  0  0  0  0  0  0  0  0  0  0
  -27.8162   -1.8757   -5.6306 N   0  0  0  0  0  0  0  0  0  0  0  0
  -28.2234   -3.0101   -6.1979 C   0  0  0  0  0  0  0  0  0  0  0  0
  -28.4257   -4.0785   -5.3591 C   0  0  0  0  0  0  0  0  0  0  0  0
  -28.8218   -5.3506   -5.8029 C   0  0  0  0  0  0  0  0  0  0  0  0
  -30.7321   -7.1616   -7.5959 C   0  0  0  0  0  0  0  0  0  0  0  0
  -29.4075   -6.6893   -7.8069 O   0  0  0  0  0  0  0  0  0  0  0  0
  -28.3625   -2.0779   -9.7287 N   0  0  0  0  0  0  0  0  0  0  0  0
  -29.2319   -1.6123   -9.9655 H   0  0  0  0  0  0  0  0  0  0  0  0
  -27.3287   -1.8506  -10.6595 C   0  0  0  0  0  0  0  0  0  0  0  0
  -26.0238   -1.5830  -10.2210 C   0  0  0  0  0  0  0  0  0  0  0  0
  -25.0045   -1.3034  -11.1293 C   0  0  0  0  0  0  0  0  0  0  0  0
  -25.2787   -1.2930  -12.4958 C   0  0  0  0  0  0  0  0  0  0  0  0
  -23.9815   -0.9118  -13.5697 Cl  0  0  0  0  0  0  0  0  0  0  0  0
  -26.5717   -1.5803  -12.9484 C   0  0  0  0  0  0  0  0  0  0  0  0
  -26.9838   -1.5860  -14.6270 Cl  0  0  0  0  0  0  0  0  0  0  0  0
  -27.5905   -1.8659  -12.0317 C   0  0  0  0  0  0  0  0  0  0  0  0
  -28.9427   -6.4131   -4.9270 O   0  0  0  0  0  0  0  0  0  0  0  0
  -27.6738   -6.9522   -4.5337 C   0  0  0  0  0  0  0  0  0  0  0  0
  -27.5242   -8.4422   -4.7429 C   0  0  0  0  0  0  0  0  0  0  0  0
  -28.5768   -9.0076   -5.7085 C   0  0  0  0  0  0  0  0  0  0  0  0
  -28.4072  -10.4944   -5.8228 N   0  0  0  0  0  0  0  0  0  0  0  0
  -28.5059  -11.1025   -4.4522 C   0  0  0  0  0  0  0  0  0  0  0  0
  -27.4889  -10.4719   -3.4978 C   0  0  0  0  0  0  0  0  0  0  0  0
  -27.6597   -9.0498   -3.4352 O   0  0  0  0  0  0  0  0  0  0  0  0
  -27.0829  -11.0434   -6.7659 S   0  0  0  0  0  0  0  0  0  0  0  0
  -25.9699  -10.1329   -6.6143 O   0  0  0  0  0  0  0  0  0  0  0  0
  -26.9236  -12.4617   -6.5217 O   0  0  0  0  0  0  0  0  0  0  0  0
  -27.6884  -10.8858   -8.4273 C   0  0  0  0  0  0  0  0  0  0  0  0
  -29.0611  -10.9518   -8.6930 C   0  0  0  0  0  0  0  0  0  0  0  0
  -29.5184  -10.6716   -9.9819 C   0  0  0  0  0  0  0  0  0  0  0  0
  -28.6065  -10.3297  -10.9778 C   0  0  0  0  0  0  0  0  0  0  0  0
  -29.0520  -10.0358  -12.2060 F   0  0  0  0  0  0  0  0  0  0  0  0
  -27.2400  -10.2711  -10.7161 C   0  0  0  0  0  0  0  0  0  0  0  0
  -26.7749  -10.5492   -9.4323 C   0  0  0  0  0  0  0  0  0  0  0  0
 11 12  1  0  0  0
 12  1  1  0  0  0
  1  2  1  0  0  0
  1 10  2  0  0  0
  2  3  2  0  0  0
  3  4  1  0  0  0
  3  8  1  0  0  0
  4 13  1  0  0  0
  4  5  2  0  0  0
 13 15  1  0  0  0
 13 14  1  0  0  0
 15 16  1  0  0  0
 15 22  2  0  0  0
 16 17  2  0  0  0
 17 18  1  0  0  0
 18 19  1  0  0  0
 18 20  2  0  0  0
 20 21  1  0  0  0
 20 22  1  0  0  0
  5  6  1  0  0  0
  6  7  2  0  0  0
  7  8  1  0  0  0
  8  9  2  0  0  0
  9 10  1  0  0  0
 10 23  1  0  0  0
 23 24  1  0  0  0
 24 25  1  0  0  0
 25 26  1  0  0  0
 25 30  1  0  0  0
 26 27  1  0  0  0
 27 31  1  0  0  0
 27 28  1  0  0  0
 31 32  2  0  0  0
 31 33  2  0  0  0
 31 34  1  0  0  0
 34 35  1  0  0  0
 34 40  2  0  0  0
 35 36  2  0  0  0
 36 37  1  0  0  0
 37 38  1  0  0  0
 37 39  2  0  0  0
 39 40  1  0  0  0
 28 29  1  0  0  0
 29 30  1  0  0  0
M  END
> <minimizedAffinity>
-9.53054

$$$$
