CHEMBL3904153


 38 41  0  0  0  0  0  0  0  0999 V2000
  -28.8072   -7.8794   -4.0228 C   0  0  0  0  0  0  0  0  0  0  0  0
  -29.5085   -8.0642   -5.3410 C   0  0  0  0  0  0  0  0  0  0  0  0
  -29.2156   -9.2525   -6.0479 C   0  0  0  0  0  0  0  0  0  0  0  0
  -29.8749   -9.5905   -7.2291 C   0  0  0  0  0  0  0  0  0  0  0  0
  -30.8132   -8.7072   -7.7462 C   0  0  0  0  0  0  0  0  0  0  0  0
  -31.0892   -7.5092   -7.0754 C   0  0  0  0  0  0  0  0  0  0  0  0
  -30.4399   -7.1516   -5.8817 C   0  0  0  0  0  0  0  0  0  0  0  0
  -30.6913   -5.9004   -5.2433 N   0  0  0  0  0  0  0  0  0  0  0  0
  -30.0208   -4.7077   -5.5031 C   0  0  0  0  0  0  0  0  0  0  0  0
  -29.1550   -4.5477   -6.3562 O   0  0  0  0  0  0  0  0  0  0  0  0
  -30.3834   -3.6910   -4.6217 N   0  0  0  0  0  0  0  0  0  0  0  0
  -31.3793   -5.8924   -4.5066 H   0  0  0  0  0  0  0  0  0  0  0  0
  -30.6125   -4.0103   -3.6925 H   0  0  0  0  0  0  0  0  0  0  0  0
  -29.7624   -2.4145   -4.6985 C   0  0  0  0  0  0  0  0  0  0  0  0
  -28.4618   -2.2722   -4.2245 C   0  0  0  0  0  0  0  0  0  0  0  0
  -27.7959   -1.0490   -4.3543 C   0  0  0  0  0  0  0  0  0  0  0  0
  -28.4331    0.0765   -4.9053 C   0  0  0  0  0  0  0  0  0  0  0  0
  -27.6594    1.3655   -4.9983 C   0  0  0  0  0  0  0  0  0  0  0  0
  -29.7705   -0.0398   -5.3415 C   0  0  0  0  0  0  0  0  0  0  0  0
  -30.4095   -1.3002   -5.2481 C   0  0  0  0  0  0  0  0  0  0  0  0
  -30.5781    1.1139   -5.9046 C   0  0  0  0  0  0  0  0  0  0  0  0
  -29.9682    1.8173   -6.9001 F   0  0  0  0  0  0  0  0  0  0  0  0
  -31.7735    0.7170   -6.4236 F   0  0  0  0  0  0  0  0  0  0  0  0
  -30.8786    2.0414   -4.9494 F   0  0  0  0  0  0  0  0  0  0  0  0
  -29.6052  -10.7261   -7.9601 O   0  0  0  0  0  0  0  0  0  0  0  0
  -28.4728  -10.7258   -8.7708 C   0  0  0  0  0  0  0  0  0  0  0  0
  -27.3255  -11.2851   -8.2460 C   0  0  0  0  0  0  0  0  0  0  0  0
  -26.2197  -11.2634   -9.0659 C   0  0  0  0  0  0  0  0  0  0  0  0
  -26.2701  -10.7530  -10.3053 N   0  0  0  0  0  0  0  0  0  0  0  0
  -27.4233  -10.2213  -10.7095 C   0  0  0  0  0  0  0  0  0  0  0  0
  -28.5391  -10.1604   -9.9875 N   0  0  0  0  0  0  0  0  0  0  0  0
  -25.0096  -11.7901   -8.5895 N   0  0  0  0  0  0  0  0  0  0  0  0
  -24.3535  -11.3102   -7.4647 C   0  0  0  0  0  0  0  0  0  0  0  0
  -24.6934  -10.3839   -6.7414 O   0  0  0  0  0  0  0  0  0  0  0  0
  -24.6074  -12.5768   -9.0729 H   0  0  0  0  0  0  0  0  0  0  0  0
  -23.0768  -12.0286   -7.1634 C   0  0  0  0  0  0  0  0  0  0  0  0
  -21.7444  -11.3523   -7.4047 C   0  0  0  0  0  0  0  0  0  0  0  0
  -22.1926  -12.4580   -8.3138 C   0  0  0  0  0  0  0  0  0  0  0  0
  1  2  1  0  0  0
  2  3  1  0  0  0
  2  7  2  0  0  0
  3  4  2  0  0  0
  4 25  1  0  0  0
  4  5  1  0  0  0
 25 26  1  0  0  0
 26 27  1  0  0  0
 26 31  2  0  0  0
 27 28  2  0  0  0
 28 32  1  0  0  0
 28 29  1  0  0  0
 32 33  1  0  0  0
 32 35  1  0  0  0
 33 34  2  0  0  0
 33 36  1  0  0  0
 36 37  1  0  0  0
 36 38  1  0  0  0
 37 38  1  0  0  0
 29 30  2  0  0  0
 30 31  1  0  0  0
  5  6  2  0  0  0
  6  7  1  0  0  0
  7  8  1  0  0  0
  8  9  1  0  0  0
  8 12  1  0  0  0
  9 10  2  0  0  0
  9 11  1  0  0  0
 11 14  1  0  0  0
 11 13  1  0  0  0
 14 15  1  0  0  0
 14 20  2  0  0  0
 15 16  2  0  0  0
 16 17  1  0  0  0
 17 18  1  0  0  0
 17 19  2  0  0  0
 19 21  1  0  0  0
 19 20  1  0  0  0
 21 22  1  0  0  0
 21 23  1  0  0  0
 21 24  1  0  0  0
M  END
> <minimizedAffinity>
-9.10921

$$$$
