CHEMBL1257912


 28 31  0  0  0  0  0  0  0  0999 V2000
  -29.0030   -4.9505   -7.7875 C   0  0  0  0  0  0  0  0  0  0  0  0
  -29.9020   -4.7094   -6.7522 C   0  0  0  0  0  0  0  0  0  0  0  0
  -30.2792   -5.7387   -5.8914 C   0  0  0  0  0  0  0  0  0  0  0  0
  -29.7450   -7.0293   -6.0288 C   0  0  0  0  0  0  0  0  0  0  0  0
  -28.8700   -7.2975   -7.1005 C   0  0  0  0  0  0  0  0  0  0  0  0
  -28.5198   -6.2529   -7.9814 C   0  0  0  0  0  0  0  0  0  0  0  0
  -28.2726   -8.6677   -7.3346 C   0  0  0  0  0  0  0  0  0  0  0  0
  -27.8016   -9.4800   -6.4331 N   0  0  0  0  0  0  0  0  0  0  0  0
  -27.8960   -9.1677   -5.0854 C   0  0  0  0  0  0  0  0  0  0  0  0
  -26.9995   -9.5635   -4.1315 C   0  0  0  0  0  0  0  0  0  0  0  0
  -27.5602   -9.1955   -2.9446 N   0  0  0  0  0  0  0  0  0  0  0  0
  -28.7681   -8.6091   -3.0655 N   0  0  0  0  0  0  0  0  0  0  0  0
  -28.9599   -8.5674   -4.3859 C   0  0  0  0  0  0  0  0  0  0  0  0
  -30.0019   -7.9545   -4.9876 N   0  0  0  0  0  0  0  0  0  0  0  0
  -27.1832   -9.3251   -2.0122 H   0  0  0  0  0  0  0  0  0  0  0  0
  -30.6804   -7.6047   -4.3204 H   0  0  0  0  0  0  0  0  0  0  0  0
  -28.2443   -9.2093   -8.7497 C   0  0  0  0  0  0  0  0  0  0  0  0
  -27.0234   -9.1906   -9.4502 C   0  0  0  0  0  0  0  0  0  0  0  0
  -26.9667   -9.5398  -10.8039 C   0  0  0  0  0  0  0  0  0  0  0  0
  -28.1284   -9.8884  -11.4853 C   0  0  0  0  0  0  0  0  0  0  0  0
  -29.3437   -9.9219  -10.8050 C   0  0  0  0  0  0  0  0  0  0  0  0
  -29.4080   -9.5993   -9.4410 C   0  0  0  0  0  0  0  0  0  0  0  0
  -30.9636   -9.7785   -8.7009 Cl  0  0  0  0  0  0  0  0  0  0  0  0
  -27.5161   -1.9103   -9.4476 C   0  0  0  0  0  0  0  0  0  0  0  0
  -27.8808   -2.7740   -8.2679 C   0  0  0  0  0  0  0  0  0  0  0  0
  -27.5895   -2.4327   -7.1287 O   0  0  0  0  0  0  0  0  0  0  0  0
  -28.5364   -3.9349   -8.6489 N   0  0  0  0  0  0  0  0  0  0  0  0
  -28.5676   -4.1334   -9.6414 H   0  0  0  0  0  0  0  0  0  0  0  0
 24 25  1  0  0  0
 25 26  2  0  0  0
 25 27  1  0  0  0
 27  1  1  0  0  0
 27 28  1  0  0  0
  1  2  1  0  0  0
  1  6  2  0  0  0
  2  3  2  0  0  0
  3  4  1  0  0  0
  4  5  2  0  0  0
  4 14  1  0  0  0
  5  6  1  0  0  0
  5  7  1  0  0  0
  7 17  1  0  0  0
  7  8  2  0  0  0
 17 18  1  0  0  0
 17 22  2  0  0  0
 18 19  2  0  0  0
 19 20  1  0  0  0
 20 21  2  0  0  0
 21 22  1  0  0  0
 22 23  1  0  0  0
  8  9  1  0  0  0
  9 10  2  0  0  0
  9 13  1  0  0  0
 10 11  1  0  0  0
 11 12  1  0  0  0
 11 15  1  0  0  0
 12 13  2  0  0  0
 13 14  1  0  0  0
 14 16  1  0  0  0
M  END
> <minimizedAffinity>
-8.73926

$$$$
