CHEMBL1762532


 39 43  0  0  0  0  0  0  0  0999 V2000
  -27.0601   -7.7094   -4.2943 N   0  0  0  0  0  0  0  0  0  0  0  0
  -26.3061   -7.0785   -4.0679 H   0  0  0  0  0  0  0  0  0  0  0  0
  -29.5376   -5.6086   -5.8223 C   0  0  0  0  0  0  0  0  0  0  0  0
  -30.5843   -5.7183   -4.9135 C   0  0  0  0  0  0  0  0  0  0  0  0
  -30.3578   -6.4328   -3.7750 C   0  0  0  0  0  0  0  0  0  0  0  0
  -29.2040   -7.0477   -3.5393 N   0  0  0  0  0  0  0  0  0  0  0  0
  -28.2414   -6.9756   -4.4673 C   0  0  0  0  0  0  0  0  0  0  0  0
  -28.3696   -6.2551   -5.6023 N   0  0  0  0  0  0  0  0  0  0  0  0
  -29.7279   -4.7886   -6.9830 N   0  0  0  0  0  0  0  0  0  0  0  0
  -30.9829   -5.1147   -7.6818 C   0  0  0  0  0  0  0  0  0  0  0  0
  -29.5884   -2.5499   -4.9685 C   0  0  0  0  0  0  0  0  0  0  0  0
  -28.9943   -2.4973   -6.3525 C   0  0  0  0  0  0  0  0  0  0  0  0
  -28.2869   -1.3220   -6.6869 C   0  0  0  0  0  0  0  0  0  0  0  0
  -27.6367   -1.1829   -7.9106 C   0  0  0  0  0  0  0  0  0  0  0  0
  -27.6997   -2.2052   -8.8542 C   0  0  0  0  0  0  0  0  0  0  0  0
  -28.4446   -3.3581   -8.5345 C   0  0  0  0  0  0  0  0  0  0  0  0
  -29.0925   -3.5556   -7.2883 C   0  0  0  0  0  0  0  0  0  0  0  0
  -26.9896   -2.1092  -10.1887 C   0  0  0  0  0  0  0  0  0  0  0  0
  -27.7080   -1.2068  -11.1843 C   0  0  0  0  0  0  0  0  0  0  0  0
  -25.6582   -1.6306  -10.0055 O   0  0  0  0  0  0  0  0  0  0  0  0
  -25.7121   -0.7709   -9.5581 H   0  0  0  0  0  0  0  0  0  0  0  0
  -26.7063   -8.9612   -4.8417 C   0  0  0  0  0  0  0  0  0  0  0  0
  -25.5922   -9.6496   -4.3423 C   0  0  0  0  0  0  0  0  0  0  0  0
  -25.1316  -10.8499   -4.9135 C   0  0  0  0  0  0  0  0  0  0  0  0
  -25.8500  -11.3550   -6.0099 C   0  0  0  0  0  0  0  0  0  0  0  0
  -26.9976  -10.7360   -6.5281 C   0  0  0  0  0  0  0  0  0  0  0  0
  -27.4045   -9.5532   -5.9015 C   0  0  0  0  0  0  0  0  0  0  0  0
  -23.9859  -11.4658   -4.4531 N   0  0  0  0  0  0  0  0  0  0  0  0
  -23.7001  -11.6376   -3.0237 C   0  0  0  0  0  0  0  0  0  0  0  0
  -22.2502  -11.2125   -2.7514 C   0  0  0  0  0  0  0  0  0  0  0  0
  -21.3237  -11.9446   -3.5751 O   0  0  0  0  0  0  0  0  0  0  0  0
  -21.6093  -11.7230   -4.9683 C   0  0  0  0  0  0  0  0  0  0  0  0
  -23.0390  -12.1590   -5.3382 C   0  0  0  0  0  0  0  0  0  0  0  0
  -27.6508  -11.2532   -7.6359 N   0  0  0  0  0  0  0  0  0  0  0  0
  -26.9339  -11.8220   -8.7902 C   0  0  0  0  0  0  0  0  0  0  0  0
  -27.1156  -10.9402  -10.0332 C   0  0  0  0  0  0  0  0  0  0  0  0
  -28.5085  -10.7189  -10.3164 O   0  0  0  0  0  0  0  0  0  0  0  0
  -29.1356  -10.0569   -9.2050 C   0  0  0  0  0  0  0  0  0  0  0  0
  -29.0487  -10.8888   -7.9133 C   0  0  0  0  0  0  0  0  0  0  0  0
 11 12  1  0  0  0
 12 13  1  0  0  0
 12 17  2  0  0  0
 13 14  2  0  0  0
 14 15  1  0  0  0
 15 18  1  0  0  0
 15 16  2  0  0  0
 18 19  1  0  0  0
 18 20  1  0  0  0
 20 21  1  0  0  0
 16 17  1  0  0  0
 17  9  1  0  0  0
  9 10  1  0  0  0
  9  3  1  0  0  0
  3  4  1  0  0  0
  3  8  2  0  0  0
  4  5  2  0  0  0
  5  6  1  0  0  0
  6  7  2  0  0  0
  7  1  1  0  0  0
  7  8  1  0  0  0
  1 22  1  0  0  0
  1  2  1  0  0  0
 22 23  1  0  0  0
 22 27  2  0  0  0
 23 24  2  0  0  0
 24 28  1  0  0  0
 24 25  1  0  0  0
 28 29  1  0  0  0
 28 33  1  0  0  0
 29 30  1  0  0  0
 30 31  1  0  0  0
 31 32  1  0  0  0
 32 33  1  0  0  0
 25 26  2  0  0  0
 26 34  1  0  0  0
 26 27  1  0  0  0
 34 35  1  0  0  0
 34 39  1  0  0  0
 35 36  1  0  0  0
 36 37  1  0  0  0
 37 38  1  0  0  0
 38 39  1  0  0  0
M  END
> <minimizedAffinity>
-9.07219

$$$$
