CHEMBL371639


 31 34  0  0  0  0  0  0  0  0999 V2000
  -24.5826   -0.5243  -12.4848 C   0  0  0  0  0  0  0  0  0  0  0  0
  -24.3402   -0.7117  -11.1664 N   0  0  0  0  0  0  0  0  0  0  0  0
  -25.2126   -1.4292  -10.3803 N   0  0  0  0  0  0  0  0  0  0  0  0
  -26.3122   -2.0012  -10.9104 C   0  0  0  0  0  0  0  0  0  0  0  0
  -26.6005   -1.8615  -12.2829 C   0  0  0  0  0  0  0  0  0  0  0  0
  -27.6853   -2.5337  -12.9013 C   0  0  0  0  0  0  0  0  0  0  0  0
  -27.9743   -2.3781  -14.2553 C   0  0  0  0  0  0  0  0  0  0  0  0
  -27.2319   -1.4890  -15.0099 C   0  0  0  0  0  0  0  0  0  0  0  0
  -26.1635   -0.8131  -14.4221 C   0  0  0  0  0  0  0  0  0  0  0  0
  -25.7593   -1.0455  -13.0794 C   0  0  0  0  0  0  0  0  0  0  0  0
  -21.3362    1.5771  -14.4402 C   0  0  0  0  0  0  0  0  0  0  0  0
  -22.4047    2.2873  -13.8975 C   0  0  0  0  0  0  0  0  0  0  0  0
  -23.4833    1.6040  -13.3255 C   0  0  0  0  0  0  0  0  0  0  0  0
  -23.5003    0.2006  -13.2077 C   0  0  0  0  0  0  0  0  0  0  0  0
  -22.4517   -0.4931  -13.8446 C   0  0  0  0  0  0  0  0  0  0  0  0
  -21.3853    0.1827  -14.4599 C   0  0  0  0  0  0  0  0  0  0  0  0
  -19.0264    1.6684  -15.2334 N   0  0  0  0  0  0  0  0  0  0  0  0
  -20.1841    2.3534  -14.9881 C   0  0  0  0  0  0  0  0  0  0  0  0
  -20.2499    3.5645  -15.1555 O   0  0  0  0  0  0  0  0  0  0  0  0
  -18.2220    2.2328  -15.4788 H   0  0  0  0  0  0  0  0  0  0  0  0
  -18.8580    0.7343  -14.8961 H   0  0  0  0  0  0  0  0  0  0  0  0
  -27.2261   -2.7032  -10.0781 N   0  0  0  0  0  0  0  0  0  0  0  0
  -27.8998   -3.1861  -10.6647 H   0  0  0  0  0  0  0  0  0  0  0  0
  -27.7554   -2.2935   -8.8381 C   0  0  0  0  0  0  0  0  0  0  0  0
  -27.5856   -0.9870   -8.3621 C   0  0  0  0  0  0  0  0  0  0  0  0
  -28.0052   -0.6274   -7.0780 C   0  0  0  0  0  0  0  0  0  0  0  0
  -28.6004   -1.5733   -6.2431 C   0  0  0  0  0  0  0  0  0  0  0  0
  -29.0726   -1.0689   -4.6605 Cl  0  0  0  0  0  0  0  0  0  0  0  0
  -28.7752   -2.8817   -6.7006 C   0  0  0  0  0  0  0  0  0  0  0  0
  -29.5067   -4.1109   -5.7285 Cl  0  0  0  0  0  0  0  0  0  0  0  0
  -28.3407   -3.2386   -7.9845 C   0  0  0  0  0  0  0  0  0  0  0  0
 17 18  1  0  0  0
 17 20  1  0  0  0
 17 21  1  0  0  0
 18 19  2  0  0  0
 18 11  1  0  0  0
 11 12  1  0  0  0
 11 16  2  0  0  0
 12 13  2  0  0  0
 13 14  1  0  0  0
 14  1  1  0  0  0
 14 15  2  0  0  0
  1  2  1  0  0  0
  1 10  2  0  0  0
  2  3  2  0  0  0
  3  4  1  0  0  0
  4 22  1  0  0  0
  4  5  2  0  0  0
 22 24  1  0  0  0
 22 23  1  0  0  0
 24 25  1  0  0  0
 24 31  2  0  0  0
 25 26  2  0  0  0
 26 27  1  0  0  0
 27 28  1  0  0  0
 27 29  2  0  0  0
 29 30  1  0  0  0
 29 31  1  0  0  0
  5  6  1  0  0  0
  5 10  1  0  0  0
  6  7  2  0  0  0
  7  8  1  0  0  0
  8  9  2  0  0  0
  9 10  1  0  0  0
 15 16  1  0  0  0
M  END
> <minimizedAffinity>
-9.95037

$$$$
