CHEMBL3906088


 44 48  0  0  0  0  0  0  0  0999 V2000
  -28.1540   -1.8069   -8.3129 C   0  0  0  0  0  0  0  0  0  0  0  0
  -27.8957   -0.5595   -7.7408 C   0  0  0  0  0  0  0  0  0  0  0  0
  -27.6331   -0.4798   -6.3881 C   0  0  0  0  0  0  0  0  0  0  0  0
  -27.6672   -1.5142   -5.5316 N   0  0  0  0  0  0  0  0  0  0  0  0
  -28.0185   -2.7122   -6.0680 C   0  0  0  0  0  0  0  0  0  0  0  0
  -28.1984   -3.9104   -5.3228 C   0  0  0  0  0  0  0  0  0  0  0  0
  -28.6177   -4.9674   -6.1022 C   0  0  0  0  0  0  0  0  0  0  0  0
  -28.6855   -4.5293   -7.7552 S   0  0  0  0  0  0  0  0  0  0  0  0
  -28.2641   -2.8953   -7.4296 C   0  0  0  0  0  0  0  0  0  0  0  0
  -28.9763   -6.2998   -5.6307 C   0  0  0  0  0  0  0  0  0  0  0  0
  -30.1118   -6.7547   -5.7428 O   0  0  0  0  0  0  0  0  0  0  0  0
  -27.9471   -7.0251   -5.0637 N   0  0  0  0  0  0  0  0  0  0  0  0
  -27.0944   -6.5216   -4.8554 H   0  0  0  0  0  0  0  0  0  0  0  0
  -28.1471   -8.3199   -4.4464 C   0  0  0  0  0  0  0  0  0  0  0  0
  -26.9463   -9.2550   -4.6056 C   0  0  0  0  0  0  0  0  0  0  0  0
  -26.9189   -9.9375   -5.9811 C   0  0  0  0  0  0  0  0  0  0  0  0
  -28.1202   -9.6997   -6.7886 N   0  0  0  0  0  0  0  0  0  0  0  0
  -27.8493   -8.9637   -8.0386 C   0  0  0  0  0  0  0  0  0  0  0  0
  -29.1636   -8.6796   -8.7988 C   0  0  0  0  0  0  0  0  0  0  0  0
  -29.9336   -9.8866   -9.1585 N   0  0  0  0  0  0  0  0  0  0  0  0
  -29.2959  -10.6164  -10.2505 C   0  0  0  0  0  0  0  0  0  0  0  0
  -30.1009  -10.7297   -7.9562 C   0  0  0  0  0  0  0  0  0  0  0  0
  -28.8219  -10.9584   -7.1069 C   0  0  0  0  0  0  0  0  0  0  0  0
  -28.3786   -1.9961   -9.6626 O   0  0  0  0  0  0  0  0  0  0  0  0
  -25.3485   -1.3600  -12.4661 C   0  0  0  0  0  0  0  0  0  0  0  0
  -25.0140   -1.4845  -11.1120 C   0  0  0  0  0  0  0  0  0  0  0  0
  -25.9998   -1.7349  -10.1597 C   0  0  0  0  0  0  0  0  0  0  0  0
  -27.3393   -1.7994  -10.5461 C   0  0  0  0  0  0  0  0  0  0  0  0
  -27.6747   -1.7037  -11.8995 C   0  0  0  0  0  0  0  0  0  0  0  0
  -26.6843   -1.4579  -12.8587 C   0  0  0  0  0  0  0  0  0  0  0  0
  -22.5922    0.0190  -14.3624 N   0  0  0  0  0  0  0  0  0  0  0  0
  -23.4466   -0.1227  -13.2833 C   0  0  0  0  0  0  0  0  0  0  0  0
  -23.4195    0.5541  -12.2664 O   0  0  0  0  0  0  0  0  0  0  0  0
  -24.3304   -1.1876  -13.4386 N   0  0  0  0  0  0  0  0  0  0  0  0
  -22.5907   -0.7247  -15.0450 H   0  0  0  0  0  0  0  0  0  0  0  0
  -23.9001   -2.0346  -13.7823 H   0  0  0  0  0  0  0  0  0  0  0  0
  -17.8382    1.0067  -15.2569 C   0  0  0  0  0  0  0  0  0  0  0  0
  -19.2109    1.4791  -14.8778 C   0  0  0  0  0  0  0  0  0  0  0  0
  -19.4227    2.8237  -14.5546 C   0  0  0  0  0  0  0  0  0  0  0  0
  -20.6988    3.2690  -14.2338 C   0  0  0  0  0  0  0  0  0  0  0  0
  -21.7673    2.3740  -14.2117 C   0  0  0  0  0  0  0  0  0  0  0  0
  -22.9802    2.9092  -14.0347 F   0  0  0  0  0  0  0  0  0  0  0  0
  -21.5773    1.0071  -14.4634 C   0  0  0  0  0  0  0  0  0  0  0  0
  -20.2929    0.5752  -14.8307 C   0  0  0  0  0  0  0  0  0  0  0  0
 37 38  1  0  0  0
 38 39  1  0  0  0
 38 44  2  0  0  0
 39 40  2  0  0  0
 40 41  1  0  0  0
 41 42  1  0  0  0
 41 43  2  0  0  0
 43 31  1  0  0  0
 43 44  1  0  0  0
 31 32  1  0  0  0
 31 35  1  0  0  0
 32 33  2  0  0  0
 32 34  1  0  0  0
 34 25  1  0  0  0
 34 36  1  0  0  0
 25 26  1  0  0  0
 25 30  2  0  0  0
 26 27  2  0  0  0
 27 28  1  0  0  0
 28 24  1  0  0  0
 28 29  2  0  0  0
 24  1  1  0  0  0
  1  2  1  0  0  0
  1  9  2  0  0  0
  2  3  2  0  0  0
  3  4  1  0  0  0
  4  5  2  0  0  0
  5  6  1  0  0  0
  5  9  1  0  0  0
  6  7  2  0  0  0
  7 10  1  0  0  0
  7  8  1  0  0  0
 10 11  2  0  0  0
 10 12  1  0  0  0
 12 14  1  0  0  0
 12 13  1  0  0  0
 14 15  1  0  0  0
 15 16  1  0  0  0
 16 17  1  0  0  0
 17 18  1  0  0  0
 17 23  1  0  0  0
 18 19  1  0  0  0
 19 20  1  0  0  0
 20 21  1  0  0  0
 20 22  1  0  0  0
 22 23  1  0  0  0
  8  9  1  0  0  0
 29 30  1  0  0  0
M  END
> <minimizedAffinity>
-10.64346

$$$$
