CHEMBL2023482


 33 36  0  0  0  0  0  0  0  0999 V2000
  -17.8079    2.5073  -15.3656 C   0  0  0  0  0  0  0  0  0  0  0  0
  -17.8579    1.5110  -14.3504 C   0  0  0  0  0  0  0  0  0  0  0  0
  -16.7564    0.7783  -13.8464 C   0  0  0  0  0  0  0  0  0  0  0  0
  -15.4865    0.9671  -14.3688 C   0  0  0  0  0  0  0  0  0  0  0  0
  -15.4075    2.0113  -15.4212 C   0  0  0  0  0  0  0  0  0  0  0  0
  -16.5415    2.8261  -15.9263 C   0  0  0  0  0  0  0  0  0  0  0  0
  -16.3366    3.8211  -16.8883 O   0  0  0  0  0  0  0  0  0  0  0  0
  -15.0167    4.2153  -17.3668 C   0  0  0  0  0  0  0  0  0  0  0  0
  -19.1801    3.1039  -15.7233 C   0  0  0  0  0  0  0  0  0  0  0  0
  -20.9807    1.6029  -14.9132 N   0  0  0  0  0  0  0  0  0  0  0  0
  -20.2723    2.7787  -14.7063 C   0  0  0  0  0  0  0  0  0  0  0  0
  -20.5247    3.5716  -13.7976 O   0  0  0  0  0  0  0  0  0  0  0  0
  -20.7505    0.9568  -15.6577 H   0  0  0  0  0  0  0  0  0  0  0  0
  -23.3609    0.1161  -12.6983 C   0  0  0  0  0  0  0  0  0  0  0  0
  -22.1530    0.0605  -13.3320 C   0  0  0  0  0  0  0  0  0  0  0  0
  -22.0459    1.2531  -14.0811 C   0  0  0  0  0  0  0  0  0  0  0  0
  -23.0909    2.0521  -13.8189 N   0  0  0  0  0  0  0  0  0  0  0  0
  -23.9284    1.3284  -12.9562 O   0  0  0  0  0  0  0  0  0  0  0  0
  -23.5190   -2.2963  -12.1307 C   0  0  0  0  0  0  0  0  0  0  0  0
  -24.0601   -0.8972  -11.8649 C   0  0  0  0  0  0  0  0  0  0  0  0
  -14.4851    0.1092  -13.9222 O   0  0  0  0  0  0  0  0  0  0  0  0
  -13.9260   -1.1702  -14.2912 C   0  0  0  0  0  0  0  0  0  0  0  0
  -12.9516   -1.8073  -15.2832 C   0  0  0  0  0  0  0  0  0  0  0  0
  -12.5537   -3.1221  -15.2748 C   0  0  0  0  0  0  0  0  0  0  0  0
  -12.6545   -3.4139  -13.9949 N   0  0  0  0  0  0  0  0  0  0  0  0
  -13.8110   -3.2697  -13.4202 C   0  0  0  0  0  0  0  0  0  0  0  0
  -14.2430   -4.4215  -12.8664 C   0  0  0  0  0  0  0  0  0  0  0  0
  -15.1355   -4.4056  -11.8281 C   0  0  0  0  0  0  0  0  0  0  0  0
  -15.6622   -3.1699  -11.4502 C   0  0  0  0  0  0  0  0  0  0  0  0
  -15.3251   -1.9990  -12.1804 C   0  0  0  0  0  0  0  0  0  0  0  0
  -14.4189   -2.0675  -13.2976 C   0  0  0  0  0  0  0  0  0  0  0  0
  -15.3953   -5.5635  -11.1402 O   0  0  0  0  0  0  0  0  0  0  0  0
  -14.2680   -6.4652  -11.0957 C   0  0  0  0  0  0  0  0  0  0  0  0
 19 20  1  0  0  0
 20 14  1  0  0  0
 14 15  2  0  0  0
 14 18  1  0  0  0
 15 16  1  0  0  0
 16 10  1  0  0  0
 16 17  2  0  0  0
 10 11  1  0  0  0
 10 13  1  0  0  0
 11 12  2  0  0  0
 11  9  1  0  0  0
  9  1  1  0  0  0
  1  2  1  0  0  0
  1  6  2  0  0  0
  2  3  2  0  0  0
  3  4  1  0  0  0
  4 21  1  0  0  0
  4  5  2  0  0  0
 21 22  1  0  0  0
 22 23  1  0  0  0
 22 31  2  0  0  0
 23 24  2  0  0  0
 24 25  1  0  0  0
 25 26  2  0  0  0
 26 27  1  0  0  0
 26 31  1  0  0  0
 27 28  2  0  0  0
 28 32  1  0  0  0
 28 29  1  0  0  0
 32 33  1  0  0  0
 29 30  2  0  0  0
 30 31  1  0  0  0
  5  6  1  0  0  0
  6  7  1  0  0  0
  7  8  1  0  0  0
 17 18  1  0  0  0
M  END
> <minimizedAffinity>
-8.84650

$$$$
