CHEMBL3694690


 38 41  0  0  0  0  0  0  0  0999 V2000
  -28.6433  -10.4057  -11.1289 C   0  0  0  0  0  0  0  0  0  0  0  0
  -27.5540  -11.1136  -10.6266 C   0  0  0  0  0  0  0  0  0  0  0  0
  -27.3298  -11.2274   -9.2543 C   0  0  0  0  0  0  0  0  0  0  0  0
  -28.2572  -10.6505   -8.3733 C   0  0  0  0  0  0  0  0  0  0  0  0
  -29.3377   -9.8893   -8.8571 C   0  0  0  0  0  0  0  0  0  0  0  0
  -29.5296   -9.7996  -10.2428 C   0  0  0  0  0  0  0  0  0  0  0  0
  -30.2425   -9.1499   -7.9689 C   0  0  0  0  0  0  0  0  0  0  0  0
  -31.6085   -9.3051   -7.7734 C   0  0  0  0  0  0  0  0  0  0  0  0
  -32.1230   -8.3600   -6.9288 N   0  0  0  0  0  0  0  0  0  0  0  0
  -31.1032   -7.5931   -6.6147 C   0  0  0  0  0  0  0  0  0  0  0  0
  -31.0502   -6.4225   -5.8058 C   0  0  0  0  0  0  0  0  0  0  0  0
  -29.8986   -5.7218   -5.6606 C   0  0  0  0  0  0  0  0  0  0  0  0
  -28.6789   -6.2243   -6.3110 C   0  0  0  0  0  0  0  0  0  0  0  0
  -28.7260   -7.3241   -7.0815 C   0  0  0  0  0  0  0  0  0  0  0  0
  -29.9278   -8.0164   -7.2300 N   0  0  0  0  0  0  0  0  0  0  0  0
  -29.8858   -4.4685   -4.8576 C   0  0  0  0  0  0  0  0  0  0  0  0
  -30.6683   -4.3011   -3.7362 C   0  0  0  0  0  0  0  0  0  0  0  0
  -30.5896   -3.0824   -3.1166 C   0  0  0  0  0  0  0  0  0  0  0  0
  -29.8212   -2.0718   -3.5518 N   0  0  0  0  0  0  0  0  0  0  0  0
  -29.0906   -2.2912   -4.6700 C   0  0  0  0  0  0  0  0  0  0  0  0
  -29.1039   -3.4733   -5.3440 N   0  0  0  0  0  0  0  0  0  0  0  0
  -28.2186   -1.1542   -5.2161 C   0  0  0  0  0  0  0  0  0  0  0  0
  -28.1503   -1.1139   -6.5813 F   0  0  0  0  0  0  0  0  0  0  0  0
  -28.6566    0.0857   -4.8412 F   0  0  0  0  0  0  0  0  0  0  0  0
  -26.9197   -1.2267   -4.7939 F   0  0  0  0  0  0  0  0  0  0  0  0
  -26.1920  -11.8831   -8.7161 N   0  0  0  0  0  0  0  0  0  0  0  0
  -25.2911  -11.3404   -7.8229 C   0  0  0  0  0  0  0  0  0  0  0  0
  -25.3248  -10.2226   -7.3267 O   0  0  0  0  0  0  0  0  0  0  0  0
  -24.2452  -12.1889   -7.5364 N   0  0  0  0  0  0  0  0  0  0  0  0
  -26.0617  -12.8521   -8.9677 H   0  0  0  0  0  0  0  0  0  0  0  0
  -24.3980  -13.1831   -7.6184 H   0  0  0  0  0  0  0  0  0  0  0  0
  -23.2239  -11.7277   -6.5846 C   0  0  0  0  0  0  0  0  0  0  0  0
  -21.8047  -11.5227   -7.1411 C   0  0  0  0  0  0  0  0  0  0  0  0
  -21.6425  -12.0897   -8.3581 F   0  0  0  0  0  0  0  0  0  0  0  0
  -21.5605  -10.1958   -7.2932 F   0  0  0  0  0  0  0  0  0  0  0  0
  -20.8532  -12.0095   -6.3175 F   0  0  0  0  0  0  0  0  0  0  0  0
  -27.9464   -9.5082  -13.2139 C   0  0  0  0  0  0  0  0  0  0  0  0
  -28.9228  -10.2194  -12.4564 O   0  0  0  0  0  0  0  0  0  0  0  0
 37 38  1  0  0  0
 38  1  1  0  0  0
  1  2  1  0  0  0
  1  6  2  0  0  0
  2  3  2  0  0  0
  3 26  1  0  0  0
  3  4  1  0  0  0
 26 27  1  0  0  0
 26 30  1  0  0  0
 27 28  2  0  0  0
 27 29  1  0  0  0
 29 32  1  0  0  0
 29 31  1  0  0  0
 32 33  1  0  0  0
 33 34  1  0  0  0
 33 35  1  0  0  0
 33 36  1  0  0  0
  4  5  2  0  0  0
  5  7  1  0  0  0
  5  6  1  0  0  0
  7  8  2  0  0  0
  7 15  1  0  0  0
  8  9  1  0  0  0
  9 10  2  0  0  0
 10 11  1  0  0  0
 10 15  1  0  0  0
 11 12  2  0  0  0
 12 16  1  0  0  0
 12 13  1  0  0  0
 16 17  1  0  0  0
 16 21  2  0  0  0
 17 18  2  0  0  0
 18 19  1  0  0  0
 19 20  2  0  0  0
 20 22  1  0  0  0
 20 21  1  0  0  0
 22 23  1  0  0  0
 22 24  1  0  0  0
 22 25  1  0  0  0
 13 14  2  0  0  0
 14 15  1  0  0  0
M  END
> <minimizedAffinity>
-9.09600

$$$$
