CHEMBL390735


 37 42  0  0  0  0  0  0  0  0999 V2000
  -23.3630    0.2252  -14.2334 C   0  0  0  0  0  0  0  0  0  0  0  0
  -23.5274    1.6170  -14.0214 C   0  0  0  0  0  0  0  0  0  0  0  0
  -22.4338    2.5024  -14.0604 C   0  0  0  0  0  0  0  0  0  0  0  0
  -21.1959    1.9682  -14.3423 C   0  0  0  0  0  0  0  0  0  0  0  0
  -21.0136    0.5751  -14.5322 C   0  0  0  0  0  0  0  0  0  0  0  0
  -22.0776   -0.2979  -14.4075 C   0  0  0  0  0  0  0  0  0  0  0  0
  -19.5764    0.1785  -14.8948 C   0  0  0  0  0  0  0  0  0  0  0  0
  -18.9822    1.5359  -14.8140 C   0  0  0  0  0  0  0  0  0  0  0  0
  -17.7551    2.1959  -14.9518 C   0  0  0  0  0  0  0  0  0  0  0  0
  -17.8971    3.5164  -14.7126 N   0  0  0  0  0  0  0  0  0  0  0  0
  -19.2212    3.6788  -14.4361 N   0  0  0  0  0  0  0  0  0  0  0  0
  -19.8912    2.5133  -14.5073 C   0  0  0  0  0  0  0  0  0  0  0  0
  -19.5626    4.6071  -14.2117 H   0  0  0  0  0  0  0  0  0  0  0  0
  -27.1567   -2.4030   -9.5045 C   0  0  0  0  0  0  0  0  0  0  0  0
  -26.8184   -1.5633  -10.6504 N   0  0  0  0  0  0  0  0  0  0  0  0
  -25.4067   -1.1594  -10.5744 C   0  0  0  0  0  0  0  0  0  0  0  0
  -25.0266   -0.2423  -11.7395 C   0  0  0  0  0  0  0  0  0  0  0  0
  -25.3227   -0.8255  -13.0528 N   0  0  0  0  0  0  0  0  0  0  0  0
  -24.5657   -0.6659  -14.2210 C   0  0  0  0  0  0  0  0  0  0  0  0
  -24.8415   -1.2507  -15.2684 O   0  0  0  0  0  0  0  0  0  0  0  0
  -26.6643   -1.4151  -13.1580 C   0  0  0  0  0  0  0  0  0  0  0  0
  -27.0462   -2.2720  -11.9289 C   0  0  0  0  0  0  0  0  0  0  0  0
  -16.4774    1.5567  -15.3128 C   0  0  0  0  0  0  0  0  0  0  0  0
  -15.7497    1.7912  -16.4620 C   0  0  0  0  0  0  0  0  0  0  0  0
  -14.3115    0.8678  -16.5301 S   0  0  0  0  0  0  0  0  0  0  0  0
  -14.6327    0.1410  -15.0159 C   0  0  0  0  0  0  0  0  0  0  0  0
  -15.8212    0.5932  -14.4765 C   0  0  0  0  0  0  0  0  0  0  0  0
  -13.7529   -0.8143  -14.4256 C   0  0  0  0  0  0  0  0  0  0  0  0
  -13.0499   -1.6203  -13.8724 C   0  0  0  0  0  0  0  0  0  0  0  0
  -12.2257   -2.5767  -13.1235 C   0  0  0  0  0  0  0  0  0  0  0  0
  -12.7948   -2.7982  -11.8337 O   0  0  0  0  0  0  0  0  0  0  0  0
  -13.9916   -3.4609  -11.7907 C   0  0  0  0  0  0  0  0  0  0  0  0
  -15.2168   -2.9264  -11.3863 C   0  0  0  0  0  0  0  0  0  0  0  0
  -16.3660   -3.7239  -11.3787 C   0  0  0  0  0  0  0  0  0  0  0  0
  -16.2977   -5.0574  -11.7777 C   0  0  0  0  0  0  0  0  0  0  0  0
  -15.0815   -5.5948  -12.1898 C   0  0  0  0  0  0  0  0  0  0  0  0
  -13.9327   -4.7990  -12.1955 C   0  0  0  0  0  0  0  0  0  0  0  0
 14 15  1  0  0  0
 15 16  1  0  0  0
 15 22  1  0  0  0
 16 17  1  0  0  0
 17 18  1  0  0  0
 18 19  1  0  0  0
 18 21  1  0  0  0
 19 20  2  0  0  0
 19  1  1  0  0  0
  1  2  1  0  0  0
  1  6  2  0  0  0
  2  3  2  0  0  0
  3  4  1  0  0  0
  4  5  2  0  0  0
  4 12  1  0  0  0
  5  6  1  0  0  0
  5  7  1  0  0  0
  7  8  1  0  0  0
  8  9  1  0  0  0
  8 12  2  0  0  0
  9 23  1  0  0  0
  9 10  2  0  0  0
 23 24  2  0  0  0
 23 27  1  0  0  0
 24 25  1  0  0  0
 25 26  1  0  0  0
 26 28  1  0  0  0
 26 27  2  0  0  0
 28 29  3  0  0  0
 29 30  1  0  0  0
 30 31  1  0  0  0
 31 32  1  0  0  0
 32 33  1  0  0  0
 32 37  2  0  0  0
 33 34  2  0  0  0
 34 35  1  0  0  0
 35 36  2  0  0  0
 36 37  1  0  0  0
 10 11  1  0  0  0
 11 12  1  0  0  0
 11 13  1  0  0  0
 21 22  1  0  0  0
M  END
> <minimizedAffinity>
-9.81145

$$$$
