CHEMBL3919145


 33 37  0  0  0  0  0  0  0  0999 V2000
  -15.3213   -3.5538  -12.6501 C   0  0  0  0  0  0  0  0  0  0  0  0
  -15.1200   -2.5736  -13.6311 C   0  0  0  0  0  0  0  0  0  0  0  0
  -13.9529   -1.7894  -13.6574 C   0  0  0  0  0  0  0  0  0  0  0  0
  -13.7929   -0.6717  -14.5023 C   0  0  0  0  0  0  0  0  0  0  0  0
  -12.6901    0.0825  -14.4553 N   0  0  0  0  0  0  0  0  0  0  0  0
  -11.7446   -0.2929  -13.5839 C   0  0  0  0  0  0  0  0  0  0  0  0
  -11.8100   -1.3310  -12.7343 N   0  0  0  0  0  0  0  0  0  0  0  0
  -12.9276   -2.0607  -12.7592 C   0  0  0  0  0  0  0  0  0  0  0  0
  -13.0879   -3.1094  -11.8521 C   0  0  0  0  0  0  0  0  0  0  0  0
  -14.2613   -3.8830  -11.7863 C   0  0  0  0  0  0  0  0  0  0  0  0
  -16.8257   -5.1734  -13.5240 C   0  0  0  0  0  0  0  0  0  0  0  0
  -16.5397   -4.1832  -12.5226 O   0  0  0  0  0  0  0  0  0  0  0  0
  -14.8493   -0.3133  -15.3759 N   0  0  0  0  0  0  0  0  0  0  0  0
  -14.6694   -0.6055  -16.3303 H   0  0  0  0  0  0  0  0  0  0  0  0
  -15.8579    0.6550  -15.2241 C   0  0  0  0  0  0  0  0  0  0  0  0
  -17.1199    0.3428  -14.7182 C   0  0  0  0  0  0  0  0  0  0  0  0
  -18.1474    1.2957  -14.6922 C   0  0  0  0  0  0  0  0  0  0  0  0
  -17.9202    2.5827  -15.1760 C   0  0  0  0  0  0  0  0  0  0  0  0
  -19.2387    3.6981  -15.1643 Cl  0  0  0  0  0  0  0  0  0  0  0  0
  -16.6560    2.9174  -15.6700 C   0  0  0  0  0  0  0  0  0  0  0  0
  -16.2871    4.4951  -16.2767 Cl  0  0  0  0  0  0  0  0  0  0  0  0
  -15.6366    1.9516  -15.6965 C   0  0  0  0  0  0  0  0  0  0  0  0
  -14.4291   -4.9132  -10.8843 O   0  0  0  0  0  0  0  0  0  0  0  0
  -13.8848   -6.2017  -11.2380 C   0  0  0  0  0  0  0  0  0  0  0  0
  -12.5245   -6.3898  -10.5705 C   0  0  0  0  0  0  0  0  0  0  0  0
  -11.7434   -7.2356  -11.5406 C   0  0  0  0  0  0  0  0  0  0  0  0
  -11.7749   -8.6326  -11.2095 O   0  0  0  0  0  0  0  0  0  0  0  0
  -11.7658   -9.3164  -12.4721 C   0  0  0  0  0  0  0  0  0  0  0  0
  -12.7113   -8.5092  -13.3474 C   0  0  0  0  0  0  0  0  0  0  0  0
  -12.4434   -7.0771  -12.8760 C   0  0  0  0  0  0  0  0  0  0  0  0
  -13.6655   -6.3488  -12.6549 O   0  0  0  0  0  0  0  0  0  0  0  0
  -12.4116   -8.7348  -14.7243 O   0  0  0  0  0  0  0  0  0  0  0  0
  -13.1631   -7.8928  -15.5911 C   0  0  0  0  0  0  0  0  0  0  0  0
 11 12  1  0  0  0
 12  1  1  0  0  0
  1  2  1  0  0  0
  1 10  2  0  0  0
  2  3  2  0  0  0
  3  4  1  0  0  0
  3  8  1  0  0  0
  4 13  1  0  0  0
  4  5  2  0  0  0
 13 15  1  0  0  0
 13 14  1  0  0  0
 15 16  1  0  0  0
 15 22  2  0  0  0
 16 17  2  0  0  0
 17 18  1  0  0  0
 18 19  1  0  0  0
 18 20  2  0  0  0
 20 21  1  0  0  0
 20 22  1  0  0  0
  5  6  1  0  0  0
  6  7  2  0  0  0
  7  8  1  0  0  0
  8  9  2  0  0  0
  9 10  1  0  0  0
 10 23  1  0  0  0
 23 24  1  0  0  0
 24 25  1  0  0  0
 24 31  1  0  0  0
 25 26  1  0  0  0
 26 27  1  0  0  0
 26 30  1  0  0  0
 27 28  1  0  0  0
 28 29  1  0  0  0
 29 32  1  0  0  0
 29 30  1  0  0  0
 32 33  1  0  0  0
 30 31  1  0  0  0
M  END
> <minimizedAffinity>
-7.29208

$$$$
