CHEMBL457984


 38 43  0  0  0  0  0  0  0  0999 V2000
  -28.5583   -3.5696   -6.3149 C   0  0  0  0  0  0  0  0  0  0  0  0
  -28.8940   -4.1414   -7.5435 C   0  0  0  0  0  0  0  0  0  0  0  0
  -28.7732   -3.4067   -8.7174 C   0  0  0  0  0  0  0  0  0  0  0  0
  -28.3718   -2.0637   -8.7070 C   0  0  0  0  0  0  0  0  0  0  0  0
  -28.2410   -1.4060   -7.4414 C   0  0  0  0  0  0  0  0  0  0  0  0
  -28.0378   -0.0071   -7.3115 C   0  0  0  0  0  0  0  0  0  0  0  0
  -27.8873    0.6128   -6.0696 C   0  0  0  0  0  0  0  0  0  0  0  0
  -27.9223   -0.1487   -4.9133 C   0  0  0  0  0  0  0  0  0  0  0  0
  -28.1261   -1.5270   -4.9960 C   0  0  0  0  0  0  0  0  0  0  0  0
  -28.3093   -2.1786   -6.2370 C   0  0  0  0  0  0  0  0  0  0  0  0
  -28.1015   -1.3833   -9.9363 N   0  0  0  0  0  0  0  0  0  0  0  0
  -28.6247   -0.5282  -10.0224 H   0  0  0  0  0  0  0  0  0  0  0  0
  -26.9390   -1.4697  -10.6442 C   0  0  0  0  0  0  0  0  0  0  0  0
  -25.7008   -1.4151  -10.1992 N   0  0  0  0  0  0  0  0  0  0  0  0
  -24.8868   -1.5238  -11.2868 C   0  0  0  0  0  0  0  0  0  0  0  0
  -23.4836   -1.4987  -11.3516 C   0  0  0  0  0  0  0  0  0  0  0  0
  -22.8633   -1.6520  -12.5946 C   0  0  0  0  0  0  0  0  0  0  0  0
  -23.6246   -1.8318  -13.7505 C   0  0  0  0  0  0  0  0  0  0  0  0
  -25.0250   -1.8446  -13.7069 C   0  0  0  0  0  0  0  0  0  0  0  0
  -25.6268   -1.6724  -12.4527 C   0  0  0  0  0  0  0  0  0  0  0  0
  -26.9350   -1.5994  -12.0224 N   0  0  0  0  0  0  0  0  0  0  0  0
  -28.0957   -1.6552  -12.8800 C   0  0  0  0  0  0  0  0  0  0  0  0
  -28.5165   -4.3517   -5.1592 O   0  0  0  0  0  0  0  0  0  0  0  0
  -30.3587   -5.8945   -4.7590 C   0  0  0  0  0  0  0  0  0  0  0  0
  -31.5306   -6.1170   -3.9963 C   0  0  0  0  0  0  0  0  0  0  0  0
  -32.0262   -5.1681   -3.1065 C   0  0  0  0  0  0  0  0  0  0  0  0
  -31.3642   -3.9678   -3.0190 C   0  0  0  0  0  0  0  0  0  0  0  0
  -30.2613   -3.6869   -3.7328 N   0  0  0  0  0  0  0  0  0  0  0  0
  -29.7388   -4.6511   -4.5439 C   0  0  0  0  0  0  0  0  0  0  0  0
  -28.2248   -8.5394   -6.0796 C   0  0  0  0  0  0  0  0  0  0  0  0
  -28.7583   -8.8898   -7.2492 N   0  0  0  0  0  0  0  0  0  0  0  0
  -29.8909   -8.2673   -7.6119 C   0  0  0  0  0  0  0  0  0  0  0  0
  -30.5069   -7.2967   -6.8605 C   0  0  0  0  0  0  0  0  0  0  0  0
  -29.8995   -6.9751   -5.6657 C   0  0  0  0  0  0  0  0  0  0  0  0
  -28.7527   -7.6036   -5.2767 N   0  0  0  0  0  0  0  0  0  0  0  0
  -26.5216   -9.0021   -4.4247 C   0  0  0  0  0  0  0  0  0  0  0  0
  -27.0456   -9.1879   -5.7576 N   0  0  0  0  0  0  0  0  0  0  0  0
  -26.4043   -9.0094   -6.5198 H   0  0  0  0  0  0  0  0  0  0  0  0
 36 37  1  0  0  0
 37 30  1  0  0  0
 37 38  1  0  0  0
 30 31  1  0  0  0
 30 35  2  0  0  0
 31 32  2  0  0  0
 32 33  1  0  0  0
 33 34  2  0  0  0
 34 24  1  0  0  0
 34 35  1  0  0  0
 24 25  1  0  0  0
 24 29  2  0  0  0
 25 26  2  0  0  0
 26 27  1  0  0  0
 27 28  2  0  0  0
 28 29  1  0  0  0
 29 23  1  0  0  0
 23  1  1  0  0  0
  1  2  1  0  0  0
  1 10  2  0  0  0
  2  3  2  0  0  0
  3  4  1  0  0  0
  4 11  1  0  0  0
  4  5  2  0  0  0
 11 13  1  0  0  0
 11 12  1  0  0  0
 13 14  2  0  0  0
 13 21  1  0  0  0
 14 15  1  0  0  0
 15 16  1  0  0  0
 15 20  2  0  0  0
 16 17  2  0  0  0
 17 18  1  0  0  0
 18 19  2  0  0  0
 19 20  1  0  0  0
 20 21  1  0  0  0
 21 22  1  0  0  0
  5  6  1  0  0  0
  5 10  1  0  0  0
  6  7  2  0  0  0
  7  8  1  0  0  0
  8  9  2  0  0  0
  9 10  1  0  0  0
M  END
> <minimizedAffinity>
-10.85132

$$$$
