CHEMBL4516973


 28 31  0  0  0  0  0  0  0  0999 V2000
  -25.2839   -1.6545  -11.8848 C   0  0  0  0  0  0  0  0  0  0  0  0
  -25.6585   -1.8549  -13.2261 C   0  0  0  0  0  0  0  0  0  0  0  0
  -24.9268   -1.3030  -14.2871 C   0  0  0  0  0  0  0  0  0  0  0  0
  -23.7988   -0.5847  -13.9215 C   0  0  0  0  0  0  0  0  0  0  0  0
  -22.8761   -0.0130  -14.7422 O   0  0  0  0  0  0  0  0  0  0  0  0
  -21.9771    0.5690  -13.8858 C   0  0  0  0  0  0  0  0  0  0  0  0
  -22.2468    0.3860  -12.6031 N   0  0  0  0  0  0  0  0  0  0  0  0
  -23.4148   -0.3342  -12.6129 C   0  0  0  0  0  0  0  0  0  0  0  0
  -24.1934   -0.8386  -11.5620 C   0  0  0  0  0  0  0  0  0  0  0  0
  -20.8253    1.2456  -14.4776 C   0  0  0  0  0  0  0  0  0  0  0  0
  -19.7583    0.4433  -14.9313 C   0  0  0  0  0  0  0  0  0  0  0  0
  -18.5972    1.0092  -15.4646 C   0  0  0  0  0  0  0  0  0  0  0  0
  -18.4786    2.3916  -15.5525 C   0  0  0  0  0  0  0  0  0  0  0  0
  -19.5238    3.2040  -15.1150 C   0  0  0  0  0  0  0  0  0  0  0  0
  -20.6915    2.6402  -14.5799 C   0  0  0  0  0  0  0  0  0  0  0  0
  -21.8878    3.7569  -14.0138 Cl  0  0  0  0  0  0  0  0  0  0  0  0
  -27.2724   -1.9218  -10.4853 C   0  0  0  0  0  0  0  0  0  0  0  0
  -27.9363   -1.0589  -11.0568 O   0  0  0  0  0  0  0  0  0  0  0  0
  -25.9758   -2.2864  -10.8289 N   0  0  0  0  0  0  0  0  0  0  0  0
  -25.7235   -3.2456  -10.6188 H   0  0  0  0  0  0  0  0  0  0  0  0
  -27.8377   -2.6927   -9.3087 C   0  0  0  0  0  0  0  0  0  0  0  0
  -28.3303    0.3373   -4.3472 C   0  0  0  0  0  0  0  0  0  0  0  0
  -28.1724   -0.4437   -5.6159 C   0  0  0  0  0  0  0  0  0  0  0  0
  -27.9431    0.2001   -6.8373 C   0  0  0  0  0  0  0  0  0  0  0  0
  -27.8097   -0.5325   -8.0175 C   0  0  0  0  0  0  0  0  0  0  0  0
  -27.8937   -1.9305   -8.0063 C   0  0  0  0  0  0  0  0  0  0  0  0
  -28.1222   -2.5809   -6.7862 C   0  0  0  0  0  0  0  0  0  0  0  0
  -28.2606   -1.8425   -5.6028 C   0  0  0  0  0  0  0  0  0  0  0  0
 22 23  1  0  0  0
 23 24  1  0  0  0
 23 28  2  0  0  0
 24 25  2  0  0  0
 25 26  1  0  0  0
 26 21  1  0  0  0
 26 27  2  0  0  0
 21 17  1  0  0  0
 17 18  2  0  0  0
 17 19  1  0  0  0
 19  1  1  0  0  0
 19 20  1  0  0  0
  1  2  1  0  0  0
  1  9  2  0  0  0
  2  3  2  0  0  0
  3  4  1  0  0  0
  4  5  1  0  0  0
  4  8  2  0  0  0
  5  6  1  0  0  0
  6 10  1  0  0  0
  6  7  2  0  0  0
 10 11  1  0  0  0
 10 15  2  0  0  0
 11 12  2  0  0  0
 12 13  1  0  0  0
 13 14  2  0  0  0
 14 15  1  0  0  0
 15 16  1  0  0  0
  7  8  1  0  0  0
  8  9  1  0  0  0
 27 28  1  0  0  0
M  END
> <minimizedAffinity>
-10.23538

$$$$
