CHEMBL230081


 28 31  0  0  0  0  0  0  0  0999 V2000
  -16.1202   -3.3144  -11.0674 C   0  0  0  0  0  0  0  0  0  0  0  0
  -16.3172   -4.8214  -11.4230 C   0  0  0  0  0  0  0  0  0  0  0  0
  -16.8752   -5.0468  -12.8412 C   0  0  0  0  0  0  0  0  0  0  0  0
  -15.9331   -4.4851  -13.9205 C   0  0  0  0  0  0  0  0  0  0  0  0
  -15.5086   -3.1150  -13.5298 C   0  0  0  0  0  0  0  0  0  0  0  0
  -15.0283   -2.1701  -14.3996 N   0  0  0  0  0  0  0  0  0  0  0  0
  -14.8622   -0.9879  -13.7230 C   0  0  0  0  0  0  0  0  0  0  0  0
  -15.2529   -1.1953  -12.4187 C   0  0  0  0  0  0  0  0  0  0  0  0
  -15.5910   -2.5627  -12.2649 C   0  0  0  0  0  0  0  0  0  0  0  0
  -14.9049   -2.2983  -15.3949 H   0  0  0  0  0  0  0  0  0  0  0  0
  -14.4380    0.1707  -14.4043 C   0  0  0  0  0  0  0  0  0  0  0  0
  -15.3115    0.9962  -14.9999 C   0  0  0  0  0  0  0  0  0  0  0  0
  -16.8055    0.7917  -15.1464 C   0  0  0  0  0  0  0  0  0  0  0  0
  -17.4934   -0.1532  -14.8113 O   0  0  0  0  0  0  0  0  0  0  0  0
  -17.2560    1.9328  -15.7848 N   0  0  0  0  0  0  0  0  0  0  0  0
  -16.2176    2.8066  -16.0692 C   0  0  0  0  0  0  0  0  0  0  0  0
  -16.3256    4.0222  -16.7112 C   0  0  0  0  0  0  0  0  0  0  0  0
  -15.1500    4.7472  -16.9062 C   0  0  0  0  0  0  0  0  0  0  0  0
  -13.9139    4.2473  -16.4534 C   0  0  0  0  0  0  0  0  0  0  0  0
  -13.8298    3.0103  -15.7997 C   0  0  0  0  0  0  0  0  0  0  0  0
  -14.9987    2.2897  -15.6182 C   0  0  0  0  0  0  0  0  0  0  0  0
  -18.2284    2.0664  -16.0177 H   0  0  0  0  0  0  0  0  0  0  0  0
  -15.2346   -3.2072   -9.8013 C   0  0  0  0  0  0  0  0  0  0  0  0
  -13.8300   -3.7847   -9.9719 C   0  0  0  0  0  0  0  0  0  0  0  0
  -12.4608   -4.4853   -8.0913 O   0  0  0  0  0  0  0  0  0  0  0  0
  -13.3900   -4.6933   -8.8524 C   0  0  0  0  0  0  0  0  0  0  0  0
  -14.1749   -5.7933   -8.7631 O   0  0  0  0  0  0  0  0  0  0  0  0
  -14.8916   -5.8153   -9.4275 H   0  0  0  0  0  0  0  0  0  0  0  0
 25 26  2  0  0  0
 26 27  1  0  0  0
 26 24  1  0  0  0
 27 28  1  0  0  0
 24 23  1  0  0  0
 23  1  1  0  0  0
  1  2  1  0  0  0
  1  9  1  0  0  0
  2  3  1  0  0  0
  3  4  1  0  0  0
  4  5  1  0  0  0
  5  6  1  0  0  0
  5  9  2  0  0  0
  6  7  1  0  0  0
  6 10  1  0  0  0
  7 11  1  0  0  0
  7  8  2  0  0  0
 11 12  2  0  0  0
 12 13  1  0  0  0
 12 21  1  0  0  0
 13 14  2  0  0  0
 13 15  1  0  0  0
 15 16  1  0  0  0
 15 22  1  0  0  0
 16 17  1  0  0  0
 16 21  2  0  0  0
 17 18  2  0  0  0
 18 19  1  0  0  0
 19 20  2  0  0  0
 20 21  1  0  0  0
  8  9  1  0  0  0
M  END
> <minimizedAffinity>
-8.24233

$$$$
