CHEMBL3923411


 44 46  0  0  0  0  0  0  0  0999 V2000
  -27.3920   -1.7280   -8.7465 C   0  0  0  0  0  0  0  0  0  0  0  0
  -27.0578   -1.6192   -9.8966 C   0  0  0  0  0  0  0  0  0  0  0  0
  -28.3330   -3.0471   -5.3760 C   0  0  0  0  0  0  0  0  0  0  0  0
  -28.7342   -1.8456   -4.8024 C   0  0  0  0  0  0  0  0  0  0  0  0
  -28.7213   -0.6550   -5.4528 N   0  0  0  0  0  0  0  0  0  0  0  0
  -28.2807   -0.6704   -6.7334 C   0  0  0  0  0  0  0  0  0  0  0  0
  -27.8408   -1.8128   -7.3916 C   0  0  0  0  0  0  0  0  0  0  0  0
  -27.8697   -3.0243   -6.6988 C   0  0  0  0  0  0  0  0  0  0  0  0
  -28.2961   -4.2092   -3.3633 O   0  0  0  0  0  0  0  0  0  0  0  0
  -28.4199   -4.3048   -4.5808 C   0  0  0  0  0  0  0  0  0  0  0  0
  -28.7389   -5.5238   -5.2082 N   0  0  0  0  0  0  0  0  0  0  0  0
  -29.5584   -6.5979   -4.4674 S   0  0  0  0  0  0  0  0  0  0  0  0
  -29.3737   -6.9448   -3.0727 O   0  0  0  0  0  0  0  0  0  0  0  0
  -31.2971   -6.2232   -4.6928 C   0  0  0  0  0  0  0  0  0  0  0  0
  -31.8979   -5.5507   -3.4596 C   0  0  0  0  0  0  0  0  0  0  0  0
  -31.7947   -4.0363   -3.5238 C   0  0  0  0  0  0  0  0  0  0  0  0
  -30.9759   -3.5480   -2.4742 O   0  0  0  0  0  0  0  0  0  0  0  0
  -31.3346   -3.8815   -1.6322 H   0  0  0  0  0  0  0  0  0  0  0  0
  -29.3410   -8.1136   -5.4026 C   0  0  0  0  0  0  0  0  0  0  0  0
  -30.0452   -8.0862   -6.7552 C   0  0  0  0  0  0  0  0  0  0  0  0
  -29.0905   -8.0297   -7.9438 C   0  0  0  0  0  0  0  0  0  0  0  0
  -28.2465   -6.8938   -7.8148 O   0  0  0  0  0  0  0  0  0  0  0  0
  -28.7993   -6.0971   -7.8975 H   0  0  0  0  0  0  0  0  0  0  0  0
  -26.7229   -1.5077  -11.2848 C   0  0  0  0  0  0  0  0  0  0  0  0
  -27.4854   -2.2075  -12.2197 C   0  0  0  0  0  0  0  0  0  0  0  0
  -27.1936   -2.0923  -13.5731 C   0  0  0  0  0  0  0  0  0  0  0  0
  -26.1399   -1.2766  -13.9934 C   0  0  0  0  0  0  0  0  0  0  0  0
  -25.3626   -0.5613  -13.0767 C   0  0  0  0  0  0  0  0  0  0  0  0
  -25.6637   -0.6877  -11.7104 C   0  0  0  0  0  0  0  0  0  0  0  0
  -24.2954    0.2925  -13.4566 N   0  0  0  0  0  0  0  0  0  0  0  0
  -23.0088   -0.1217  -13.7918 C   0  0  0  0  0  0  0  0  0  0  0  0
  -22.6043   -1.2805  -13.8183 O   0  0  0  0  0  0  0  0  0  0  0  0
  -24.5178    1.2735  -13.5312 H   0  0  0  0  0  0  0  0  0  0  0  0
  -22.0198    0.9261  -14.1752 C   0  0  0  0  0  0  0  0  0  0  0  0
  -22.2941    2.2925  -14.1459 C   0  0  0  0  0  0  0  0  0  0  0  0
  -21.2746    3.2046  -14.4410 C   0  0  0  0  0  0  0  0  0  0  0  0
  -19.9745    2.7706  -14.7520 C   0  0  0  0  0  0  0  0  0  0  0  0
  -18.8141    4.0054  -15.0740 Cl  0  0  0  0  0  0  0  0  0  0  0  0
  -19.6732    1.4082  -14.7745 C   0  0  0  0  0  0  0  0  0  0  0  0
  -20.7146    0.5001  -14.4877 C   0  0  0  0  0  0  0  0  0  0  0  0
  -18.3072    0.8289  -15.0485 C   0  0  0  0  0  0  0  0  0  0  0  0
  -17.6099    1.3822  -16.0737 F   0  0  0  0  0  0  0  0  0  0  0  0
  -17.4908    0.9286  -13.9605 F   0  0  0  0  0  0  0  0  0  0  0  0
  -18.3721   -0.5038  -15.3325 F   0  0  0  0  0  0  0  0  0  0  0  0
  9 10  2  0  0  0
 10 11  1  0  0  0
 10  3  1  0  0  0
 11 12  2  0  0  0
 12 13  2  0  0  0
 12 14  1  0  0  0
 12 19  1  0  0  0
 14 15  1  0  0  0
 15 16  1  0  0  0
 16 17  1  0  0  0
 17 18  1  0  0  0
 19 20  1  0  0  0
 20 21  1  0  0  0
 21 22  1  0  0  0
 22 23  1  0  0  0
  3  4  1  0  0  0
  3  8  2  0  0  0
  4  5  2  0  0  0
  5  6  1  0  0  0
  6  7  2  0  0  0
  7  1  1  0  0  0
  7  8  1  0  0  0
  1  2  3  0  0  0
  2 24  1  0  0  0
 24 25  1  0  0  0
 24 29  2  0  0  0
 25 26  2  0  0  0
 26 27  1  0  0  0
 27 28  2  0  0  0
 28 30  1  0  0  0
 28 29  1  0  0  0
 30 31  1  0  0  0
 30 33  1  0  0  0
 31 32  2  0  0  0
 31 34  1  0  0  0
 34 35  1  0  0  0
 34 40  2  0  0  0
 35 36  2  0  0  0
 36 37  1  0  0  0
 37 38  1  0  0  0
 37 39  2  0  0  0
 39 41  1  0  0  0
 39 40  1  0  0  0
 41 42  1  0  0  0
 41 43  1  0  0  0
 41 44  1  0  0  0
M  END
> <minimizedAffinity>
-10.23726

$$$$
