CHEMBL207842


 26 29  0  0  0  0  0  0  0  0999 V2000
  -28.3811   -8.7100   -6.1578 C   0  0  0  0  0  0  0  0  0  0  0  0
  -28.8000   -8.7178   -4.8380 C   0  0  0  0  0  0  0  0  0  0  0  0
  -29.4239   -7.5391   -4.5698 N   0  0  0  0  0  0  0  0  0  0  0  0
  -29.9640   -7.2041   -3.3863 N   0  0  0  0  0  0  0  0  0  0  0  0
  -30.5303   -6.0387   -3.3666 C   0  0  0  0  0  0  0  0  0  0  0  0
  -30.6403   -5.1653   -4.4142 N   0  0  0  0  0  0  0  0  0  0  0  0
  -30.1251   -5.5268   -5.5411 C   0  0  0  0  0  0  0  0  0  0  0  0
  -29.4435   -6.7648   -5.6906 C   0  0  0  0  0  0  0  0  0  0  0  0
  -28.7978   -7.4456   -6.7140 C   0  0  0  0  0  0  0  0  0  0  0  0
  -28.5867   -7.0289   -8.1306 C   0  0  0  0  0  0  0  0  0  0  0  0
  -27.7214   -9.8228   -6.8356 C   0  0  0  0  0  0  0  0  0  0  0  0
  -26.5064   -9.9728   -6.8631 O   0  0  0  0  0  0  0  0  0  0  0  0
  -28.6126  -10.5983   -7.5186 O   0  0  0  0  0  0  0  0  0  0  0  0
  -29.6227  -10.2461   -9.6516 C   0  0  0  0  0  0  0  0  0  0  0  0
  -28.3728  -10.7137   -8.9244 C   0  0  0  0  0  0  0  0  0  0  0  0
  -30.2079   -4.7934   -6.7130 O   0  0  0  0  0  0  0  0  0  0  0  0
  -29.5478   -3.5472   -6.7753 C   0  0  0  0  0  0  0  0  0  0  0  0
  -28.5418   -3.3133   -7.7107 C   0  0  0  0  0  0  0  0  0  0  0  0
  -27.8593   -2.0904   -7.7327 C   0  0  0  0  0  0  0  0  0  0  0  0
  -28.2005   -1.1479   -6.7607 C   0  0  0  0  0  0  0  0  0  0  0  0
  -27.6932    0.1110   -6.5425 N   0  0  0  0  0  0  0  0  0  0  0  0
  -28.3019    0.6835   -5.4607 C   0  0  0  0  0  0  0  0  0  0  0  0
  -29.2222   -0.2153   -4.9729 C   0  0  0  0  0  0  0  0  0  0  0  0
  -29.1763   -1.3785   -5.7890 C   0  0  0  0  0  0  0  0  0  0  0  0
  -29.8672   -2.6075   -5.7906 C   0  0  0  0  0  0  0  0  0  0  0  0
  -26.9709    0.5410   -7.1017 H   0  0  0  0  0  0  0  0  0  0  0  0
 14 15  1  0  0  0
 15 13  1  0  0  0
 13 11  1  0  0  0
 11 12  2  0  0  0
 11  1  1  0  0  0
  1  2  2  0  0  0
  1  9  1  0  0  0
  2  3  1  0  0  0
  3  4  1  0  0  0
  3  8  1  0  0  0
  4  5  2  0  0  0
  5  6  1  0  0  0
  6  7  2  0  0  0
  7 16  1  0  0  0
  7  8  1  0  0  0
 16 17  1  0  0  0
 17 18  1  0  0  0
 17 25  2  0  0  0
 18 19  2  0  0  0
 19 20  1  0  0  0
 20 21  1  0  0  0
 20 24  2  0  0  0
 21 22  1  0  0  0
 21 26  1  0  0  0
 22 23  2  0  0  0
 23 24  1  0  0  0
 24 25  1  0  0  0
  8  9  2  0  0  0
  9 10  1  0  0  0
M  END
> <minimizedAffinity>
-7.54235

$$$$
