CHEMBL3943387


 34 37  0  0  0  0  0  0  0  0999 V2000
  -32.9367   11.3833  -12.3943 N   0  0  0  0  0  0  0  0  0  0  0  0
  -31.6379   11.7363  -12.9116 C   0  0  0  0  0  0  0  0  0  0  0  0
  -31.5810   11.7415  -14.2894 C   0  0  0  0  0  0  0  0  0  0  0  0
  -30.3932   11.6896  -14.8402 C   0  0  0  0  0  0  0  0  0  0  0  0
  -29.1931   11.6057  -14.1335 C   0  0  0  0  0  0  0  0  0  0  0  0
  -28.5378   10.8081  -14.8512 N   0  0  0  0  0  0  0  0  0  0  0  0
  -27.6439   11.4517  -15.5168 C   0  0  0  0  0  0  0  0  0  0  0  0
  -26.6100   11.8997  -14.8409 C   0  0  0  0  0  0  0  0  0  0  0  0
  -27.1020   12.0999  -13.4064 N   0  0  0  0  0  0  0  0  0  0  0  0
  -28.7734   11.9987  -12.9440 C   0  0  0  0  0  0  0  0  0  0  0  0
  -30.3147   11.9461  -12.2295 C   0  0  0  0  0  0  0  0  0  0  0  0
  -25.3995   11.7120  -16.0373 C   0  0  0  0  0  0  0  0  0  0  0  0
  -24.8365   10.3785  -16.5750 C   0  0  0  0  0  0  0  0  0  0  0  0
  -23.7810   10.4516  -17.3988 N   0  0  0  0  0  0  0  0  0  0  0  0
  -23.5505   11.7663  -17.4996 N   0  0  0  0  0  0  0  0  0  0  0  0
  -22.5144   12.2095  -18.4447 C   0  0  0  0  0  0  0  0  0  0  0  0
  -24.4579   12.5203  -16.6952 C   0  0  0  0  0  0  0  0  0  0  0  0
  -35.1268    8.6115  -13.7561 C   0  0  0  0  0  0  0  0  0  0  0  0
  -35.0267    7.6727  -12.7427 C   0  0  0  0  0  0  0  0  0  0  0  0
  -34.2519    7.9450  -11.6183 C   0  0  0  0  0  0  0  0  0  0  0  0
  -33.5878    9.1784  -11.5037 C   0  0  0  0  0  0  0  0  0  0  0  0
  -33.6704   10.1705  -12.5004 C   0  0  0  0  0  0  0  0  0  0  0  0
  -34.4753    9.8542  -13.6183 C   0  0  0  0  0  0  0  0  0  0  0  0
  -35.1821    8.8346  -16.1325 C   0  0  0  0  0  0  0  0  0  0  0  0
  -35.8207    8.4222  -14.9247 O   0  0  0  0  0  0  0  0  0  0  0  0
  -34.0758    7.0613  -10.5818 O   0  0  0  0  0  0  0  0  0  0  0  0
  -35.0845    6.0565  -10.4748 C   0  0  0  0  0  0  0  0  0  0  0  0
  -33.6762   12.6016  -11.7988 C   0  0  0  0  0  0  0  0  0  0  0  0
  -33.9593   12.6261  -10.2601 C   0  0  0  0  0  0  0  0  0  0  0  0
  -35.1653   11.9359   -9.8948 O   0  0  0  0  0  0  0  0  0  0  0  0
  -35.2011   11.1038  -10.3919 H   0  0  0  0  0  0  0  0  0  0  0  0
  -32.8337   11.9597   -9.4368 C   0  0  0  0  0  0  0  0  0  0  0  0
  -33.1253   11.9873   -8.0388 O   0  0  0  0  0  0  0  0  0  0  0  0
  -33.2005   12.9237   -7.7835 H   0  0  0  0  0  0  0  0  0  0  0  0
 24 25  1  0  0  0
 25 18  1  0  0  0
 18 19  1  0  0  0
 18 23  2  0  0  0
 19 20  2  0  0  0
 20 26  1  0  0  0
 20 21  1  0  0  0
 26 27  1  0  0  0
 21 22  2  0  0  0
 22  1  1  0  0  0
 22 23  1  0  0  0
  1 28  1  0  0  0
  1  2  1  0  0  0
 28 29  1  0  0  0
 29 30  1  0  0  0
 29 32  1  0  0  0
 30 31  1  0  0  0
 32 33  1  0  0  0
 33 34  1  0  0  0
  2  3  1  0  0  0
  2 11  2  0  0  0
  3  4  2  0  0  0
  4  5  1  0  0  0
  5  6  1  0  0  0
  5 10  2  0  0  0
  6  7  2  0  0  0
  7  8  1  0  0  0
  8 12  1  0  0  0
  8  9  2  0  0  0
 12 13  1  0  0  0
 12 17  2  0  0  0
 13 14  2  0  0  0
 14 15  1  0  0  0
 15 16  1  0  0  0
 15 17  1  0  0  0
  9 10  1  0  0  0
 10 11  1  0  0  0
M  END
> <minimizedAffinity>
-6.05237

$$$$
