CHEMBL3908050


 38 41  0  0  0  0  0  0  0  0999 V2000
  -26.4370   -1.2355  -12.4371 C   0  0  0  0  0  0  0  0  0  0  0  0
  -25.1975   -0.6534  -12.1373 C   0  0  0  0  0  0  0  0  0  0  0  0
  -24.1994   -0.5526  -13.1131 C   0  0  0  0  0  0  0  0  0  0  0  0
  -24.4345   -1.0433  -14.3999 C   0  0  0  0  0  0  0  0  0  0  0  0
  -25.6812   -1.5737  -14.7268 C   0  0  0  0  0  0  0  0  0  0  0  0
  -26.6645   -1.6758  -13.7457 C   0  0  0  0  0  0  0  0  0  0  0  0
  -27.8522   -2.2097  -14.0727 F   0  0  0  0  0  0  0  0  0  0  0  0
  -26.0900   -1.7323   -9.6300 O   0  0  0  0  0  0  0  0  0  0  0  0
  -27.2067   -1.7749  -10.1396 C   0  0  0  0  0  0  0  0  0  0  0  0
  -28.3532   -2.1798   -9.4693 N   0  0  0  0  0  0  0  0  0  0  0  0
  -27.4466   -1.4601  -11.4630 N   0  0  0  0  0  0  0  0  0  0  0  0
  -29.1655   -2.3666  -10.0435 H   0  0  0  0  0  0  0  0  0  0  0  0
  -28.3865   -1.2030  -11.7325 H   0  0  0  0  0  0  0  0  0  0  0  0
  -28.3816   -2.6439   -8.1294 C   0  0  0  0  0  0  0  0  0  0  0  0
  -27.9847   -1.8570   -7.0479 C   0  0  0  0  0  0  0  0  0  0  0  0
  -27.9458   -2.3865   -5.7618 C   0  0  0  0  0  0  0  0  0  0  0  0
  -28.3173   -3.7088   -5.5209 C   0  0  0  0  0  0  0  0  0  0  0  0
  -28.1966   -4.2453   -3.8872 Cl  0  0  0  0  0  0  0  0  0  0  0  0
  -28.7581   -4.5143   -6.5761 C   0  0  0  0  0  0  0  0  0  0  0  0
  -28.8020   -3.9565   -7.8787 C   0  0  0  0  0  0  0  0  0  0  0  0
  -29.1798   -5.9521   -6.4153 C   0  0  0  0  0  0  0  0  0  0  0  0
  -28.2617   -6.8048   -5.8924 F   0  0  0  0  0  0  0  0  0  0  0  0
  -30.2806   -6.0674   -5.6179 F   0  0  0  0  0  0  0  0  0  0  0  0
  -29.5428   -6.5041   -7.6103 F   0  0  0  0  0  0  0  0  0  0  0  0
  -22.9779   -0.0604  -12.7009 O   0  0  0  0  0  0  0  0  0  0  0  0
  -22.3592    0.9057  -13.4877 C   0  0  0  0  0  0  0  0  0  0  0  0
  -21.1652    0.5547  -14.0823 C   0  0  0  0  0  0  0  0  0  0  0  0
  -20.5510    1.5489  -14.8153 C   0  0  0  0  0  0  0  0  0  0  0  0
  -21.1058    2.7553  -14.9735 N   0  0  0  0  0  0  0  0  0  0  0  0
  -22.2629    2.9908  -14.3562 C   0  0  0  0  0  0  0  0  0  0  0  0
  -22.9184    2.1232  -13.5898 N   0  0  0  0  0  0  0  0  0  0  0  0
  -19.2909    1.2914  -15.3808 N   0  0  0  0  0  0  0  0  0  0  0  0
  -18.1831    2.0932  -15.1855 C   0  0  0  0  0  0  0  0  0  0  0  0
  -18.1263    3.1617  -14.5945 O   0  0  0  0  0  0  0  0  0  0  0  0
  -19.1783    0.4409  -15.9098 H   0  0  0  0  0  0  0  0  0  0  0  0
  -16.9346    1.5389  -15.7986 C   0  0  0  0  0  0  0  0  0  0  0  0
  -15.9003    0.8542  -14.9310 C   0  0  0  0  0  0  0  0  0  0  0  0
  -15.6120    2.2094  -15.5077 C   0  0  0  0  0  0  0  0  0  0  0  0
  8  9  2  0  0  0
  9 10  1  0  0  0
  9 11  1  0  0  0
 10 14  1  0  0  0
 10 12  1  0  0  0
 14 15  1  0  0  0
 14 20  2  0  0  0
 15 16  2  0  0  0
 16 17  1  0  0  0
 17 18  1  0  0  0
 17 19  2  0  0  0
 19 21  1  0  0  0
 19 20  1  0  0  0
 21 22  1  0  0  0
 21 23  1  0  0  0
 21 24  1  0  0  0
 11  1  1  0  0  0
 11 13  1  0  0  0
  1  2  1  0  0  0
  1  6  2  0  0  0
  2  3  2  0  0  0
  3 25  1  0  0  0
  3  4  1  0  0  0
 25 26  1  0  0  0
 26 27  1  0  0  0
 26 31  2  0  0  0
 27 28  2  0  0  0
 28 32  1  0  0  0
 28 29  1  0  0  0
 32 33  1  0  0  0
 32 35  1  0  0  0
 33 34  2  0  0  0
 33 36  1  0  0  0
 36 37  1  0  0  0
 36 38  1  0  0  0
 37 38  1  0  0  0
 29 30  2  0  0  0
 30 31  1  0  0  0
  4  5  2  0  0  0
  5  6  1  0  0  0
  6  7  1  0  0  0
M  END
> <minimizedAffinity>
-11.23115

$$$$
