CHEMBL212964


 34 37  0  0  0  0  0  0  0  0999 V2000
  -25.2209   -0.7826  -12.9971 C   0  0  0  0  0  0  0  0  0  0  0  0
  -25.5728   -0.8889  -11.6217 C   0  0  0  0  0  0  0  0  0  0  0  0
  -26.7554   -1.5151  -11.2046 C   0  0  0  0  0  0  0  0  0  0  0  0
  -27.6392   -2.0113  -12.1615 C   0  0  0  0  0  0  0  0  0  0  0  0
  -27.3379   -1.9079  -13.5129 C   0  0  0  0  0  0  0  0  0  0  0  0
  -26.1307   -1.3293  -13.9478 C   0  0  0  0  0  0  0  0  0  0  0  0
  -25.8896   -1.3672  -15.4380 C   0  0  0  0  0  0  0  0  0  0  0  0
  -20.1092    2.8983  -14.4601 C   0  0  0  0  0  0  0  0  0  0  0  0
  -21.1354    3.7361  -14.2773 N   0  0  0  0  0  0  0  0  0  0  0  0
  -22.3104    3.1778  -13.9384 C   0  0  0  0  0  0  0  0  0  0  0  0
  -22.5041    1.8157  -13.7918 C   0  0  0  0  0  0  0  0  0  0  0  0
  -23.7309    1.2364  -13.4021 C   0  0  0  0  0  0  0  0  0  0  0  0
  -23.9149   -0.1529  -13.3596 C   0  0  0  0  0  0  0  0  0  0  0  0
  -22.7820   -0.9291  -13.6631 C   0  0  0  0  0  0  0  0  0  0  0  0
  -21.5448   -0.3423  -13.9816 C   0  0  0  0  0  0  0  0  0  0  0  0
  -21.3883    1.0315  -14.0598 C   0  0  0  0  0  0  0  0  0  0  0  0
  -20.2020    1.5625  -14.3809 N   0  0  0  0  0  0  0  0  0  0  0  0
  -18.0921    2.8295  -15.7324 C   0  0  0  0  0  0  0  0  0  0  0  0
  -18.8942    3.5034  -14.7391 N   0  0  0  0  0  0  0  0  0  0  0  0
  -19.0927    4.4821  -14.9130 H   0  0  0  0  0  0  0  0  0  0  0  0
  -27.0825   -1.7889   -9.7778 C   0  0  0  0  0  0  0  0  0  0  0  0
  -26.4205   -1.1873   -8.9332 O   0  0  0  0  0  0  0  0  0  0  0  0
  -28.0664   -2.7297   -9.5124 N   0  0  0  0  0  0  0  0  0  0  0  0
  -28.3947   -3.2950  -10.2846 H   0  0  0  0  0  0  0  0  0  0  0  0
  -28.4867   -3.1167   -8.2142 C   0  0  0  0  0  0  0  0  0  0  0  0
  -28.8077   -4.4359   -7.8780 C   0  0  0  0  0  0  0  0  0  0  0  0
  -29.2733   -4.7629   -6.6037 C   0  0  0  0  0  0  0  0  0  0  0  0
  -29.4226   -3.7710   -5.6412 C   0  0  0  0  0  0  0  0  0  0  0  0
  -29.0869   -2.4436   -5.9404 C   0  0  0  0  0  0  0  0  0  0  0  0
  -28.5984   -2.1297   -7.2265 C   0  0  0  0  0  0  0  0  0  0  0  0
  -29.2704   -1.3586   -4.9093 C   0  0  0  0  0  0  0  0  0  0  0  0
  -30.0870   -0.3472   -5.3186 F   0  0  0  0  0  0  0  0  0  0  0  0
  -29.8086   -1.8266   -3.7499 F   0  0  0  0  0  0  0  0  0  0  0  0
  -28.0930   -0.7675   -4.5630 F   0  0  0  0  0  0  0  0  0  0  0  0
 18 19  1  0  0  0
 19  8  1  0  0  0
 19 20  1  0  0  0
  8  9  1  0  0  0
  8 17  2  0  0  0
  9 10  2  0  0  0
 10 11  1  0  0  0
 11 12  1  0  0  0
 11 16  2  0  0  0
 12 13  2  0  0  0
 13  1  1  0  0  0
 13 14  1  0  0  0
  1  2  1  0  0  0
  1  6  2  0  0  0
  2  3  2  0  0  0
  3 21  1  0  0  0
  3  4  1  0  0  0
 21 22  2  0  0  0
 21 23  1  0  0  0
 23 25  1  0  0  0
 23 24  1  0  0  0
 25 26  1  0  0  0
 25 30  2  0  0  0
 26 27  2  0  0  0
 27 28  1  0  0  0
 28 29  2  0  0  0
 29 31  1  0  0  0
 29 30  1  0  0  0
 31 32  1  0  0  0
 31 33  1  0  0  0
 31 34  1  0  0  0
  4  5  2  0  0  0
  5  6  1  0  0  0
  6  7  1  0  0  0
 14 15  2  0  0  0
 15 16  1  0  0  0
 16 17  1  0  0  0
M  END
> <minimizedAffinity>
-11.54843

$$$$
