CHEMBL4453147


 23 26  0  0  0  0  0  0  0  0999 V2000
  -27.9143   -2.0708   -9.0358 C   0  0  0  0  0  0  0  0  0  0  0  0
  -27.6899   -1.0082   -8.2605 N   0  0  0  0  0  0  0  0  0  0  0  0
  -27.7879   -1.2017   -6.9334 C   0  0  0  0  0  0  0  0  0  0  0  0
  -28.0691   -2.4174   -6.3339 C   0  0  0  0  0  0  0  0  0  0  0  0
  -28.2488   -3.4685   -7.2020 C   0  0  0  0  0  0  0  0  0  0  0  0
  -28.1766   -3.2890   -8.5420 N   0  0  0  0  0  0  0  0  0  0  0  0
  -28.5396   -4.8410   -6.7676 C   0  0  0  0  0  0  0  0  0  0  0  0
  -28.7274   -5.8819   -7.7024 C   0  0  0  0  0  0  0  0  0  0  0  0
  -28.9830   -7.1870   -7.2932 C   0  0  0  0  0  0  0  0  0  0  0  0
  -29.0535   -7.4307   -5.9409 C   0  0  0  0  0  0  0  0  0  0  0  0
  -28.8834   -6.4746   -5.0080 N   0  0  0  0  0  0  0  0  0  0  0  0
  -28.6254   -5.2038   -5.4231 C   0  0  0  0  0  0  0  0  0  0  0  0
  -28.3766   -4.0917   -4.0637 S   0  0  0  0  0  0  0  0  0  0  0  0
  -28.1888   -2.4880   -4.8529 C   0  0  0  0  0  0  0  0  0  0  0  0
  -27.8590   -1.8571  -10.4104 N   0  0  0  0  0  0  0  0  0  0  0  0
  -28.7096   -2.2003  -10.8372 H   0  0  0  0  0  0  0  0  0  0  0  0
  -26.1132   -1.4862  -14.8422 F   0  0  0  0  0  0  0  0  0  0  0  0
  -25.8918   -1.5136  -13.5208 C   0  0  0  0  0  0  0  0  0  0  0  0
  -24.5946   -1.3662  -13.0469 C   0  0  0  0  0  0  0  0  0  0  0  0
  -24.3698   -1.3825  -11.6772 C   0  0  0  0  0  0  0  0  0  0  0  0
  -25.4437   -1.5536  -10.8016 C   0  0  0  0  0  0  0  0  0  0  0  0
  -26.7565   -1.7263  -11.2685 C   0  0  0  0  0  0  0  0  0  0  0  0
  -26.9649   -1.6863  -12.6511 C   0  0  0  0  0  0  0  0  0  0  0  0
 17 18  1  0  0  0
 18 19  1  0  0  0
 18 23  2  0  0  0
 19 20  2  0  0  0
 20 21  1  0  0  0
 21 22  2  0  0  0
 22 15  1  0  0  0
 22 23  1  0  0  0
 15  1  1  0  0  0
 15 16  1  0  0  0
  1  2  1  0  0  0
  1  6  2  0  0  0
  2  3  2  0  0  0
  3  4  1  0  0  0
  4  5  2  0  0  0
  4 14  1  0  0  0
  5  6  1  0  0  0
  5  7  1  0  0  0
  7  8  1  0  0  0
  7 12  2  0  0  0
  8  9  2  0  0  0
  9 10  1  0  0  0
 10 11  2  0  0  0
 11 12  1  0  0  0
 12 13  1  0  0  0
 13 14  1  0  0  0
M  END
> <minimizedAffinity>
-8.87579

$$$$
