CHEMBL3986639


 45 49  0  0  0  0  0  0  0  0999 V2000
  -27.9829   -2.0649   -9.8445 N   0  0  0  0  0  0  0  0  0  0  0  0
  -26.7297   -1.8387  -10.3910 C   0  0  0  0  0  0  0  0  0  0  0  0
  -25.7024   -1.6403   -9.7498 O   0  0  0  0  0  0  0  0  0  0  0  0
  -26.7445   -1.8288  -11.7848 N   0  0  0  0  0  0  0  0  0  0  0  0
  -28.6884   -2.4358  -10.4649 H   0  0  0  0  0  0  0  0  0  0  0  0
  -27.5691   -1.4038  -12.1854 H   0  0  0  0  0  0  0  0  0  0  0  0
  -25.5201   -1.6195  -12.4750 C   0  0  0  0  0  0  0  0  0  0  0  0
  -24.2945   -1.7000  -11.7991 C   0  0  0  0  0  0  0  0  0  0  0  0
  -23.0962   -1.3665  -12.4386 C   0  0  0  0  0  0  0  0  0  0  0  0
  -23.1151   -0.8963  -13.7521 C   0  0  0  0  0  0  0  0  0  0  0  0
  -24.3350   -0.8845  -14.4390 C   0  0  0  0  0  0  0  0  0  0  0  0
  -24.3825   -0.4651  -15.7127 F   0  0  0  0  0  0  0  0  0  0  0  0
  -25.5321   -1.2664  -13.8217 C   0  0  0  0  0  0  0  0  0  0  0  0
  -21.9883   -0.4950  -14.4427 O   0  0  0  0  0  0  0  0  0  0  0  0
  -21.6217    0.8384  -14.4455 C   0  0  0  0  0  0  0  0  0  0  0  0
  -22.4195    1.8534  -13.9333 C   0  0  0  0  0  0  0  0  0  0  0  0
  -21.9215    3.1386  -13.9691 C   0  0  0  0  0  0  0  0  0  0  0  0
  -20.7331    3.4594  -14.5138 N   0  0  0  0  0  0  0  0  0  0  0  0
  -19.9888    2.4912  -15.0723 C   0  0  0  0  0  0  0  0  0  0  0  0
  -20.4045    1.1626  -15.0604 C   0  0  0  0  0  0  0  0  0  0  0  0
  -18.7604    2.8277  -15.6752 N   0  0  0  0  0  0  0  0  0  0  0  0
  -17.5331    2.3961  -15.2121 C   0  0  0  0  0  0  0  0  0  0  0  0
  -17.3162    1.6932  -14.2350 O   0  0  0  0  0  0  0  0  0  0  0  0
  -18.7893    3.4342  -16.4786 H   0  0  0  0  0  0  0  0  0  0  0  0
  -16.3250    2.8360  -15.9752 C   0  0  0  0  0  0  0  0  0  0  0  0
  -15.4241    1.8019  -16.6094 C   0  0  0  0  0  0  0  0  0  0  0  0
  -14.8836    2.7266  -15.5565 C   0  0  0  0  0  0  0  0  0  0  0  0
  -28.9569   -3.1487   -6.3627 C   0  0  0  0  0  0  0  0  0  0  0  0
  -28.6018   -3.1914   -7.7144 C   0  0  0  0  0  0  0  0  0  0  0  0
  -28.2872   -2.0362   -8.4547 C   0  0  0  0  0  0  0  0  0  0  0  0
  -28.2977   -0.8008   -7.7975 C   0  0  0  0  0  0  0  0  0  0  0  0
  -28.6439   -0.7220   -6.4338 C   0  0  0  0  0  0  0  0  0  0  0  0
  -28.9600   -1.8976   -5.7398 C   0  0  0  0  0  0  0  0  0  0  0  0
  -28.5538   -6.3532   -4.7398 C   0  0  0  0  0  0  0  0  0  0  0  0
  -28.7250   -5.3368   -3.6067 C   0  0  0  0  0  0  0  0  0  0  0  0
  -29.5823   -4.2150   -4.1791 C   0  0  0  0  0  0  0  0  0  0  0  0
  -29.3931   -4.2569   -5.6343 N   0  0  0  0  0  0  0  0  0  0  0  0
  -28.6567   -5.4816   -6.0112 C   0  0  0  0  0  0  0  0  0  0  0  0
  -29.9061   -8.0465   -5.9383 C   0  0  0  0  0  0  0  0  0  0  0  0
  -29.4076   -7.5597   -4.6545 N   0  0  0  0  0  0  0  0  0  0  0  0
  -28.7217   -8.6407   -3.9392 C   0  0  0  0  0  0  0  0  0  0  0  0
  -28.7214    0.5881   -5.6953 C   0  0  0  0  0  0  0  0  0  0  0  0
  -28.3962    1.6676   -6.4586 F   0  0  0  0  0  0  0  0  0  0  0  0
  -29.9739    0.8358   -5.2168 F   0  0  0  0  0  0  0  0  0  0  0  0
  -27.8959    0.6324   -4.6126 F   0  0  0  0  0  0  0  0  0  0  0  0
 39 40  1  0  0  0
 40 41  1  0  0  0
 40 34  1  0  0  0
 34 35  1  0  0  0
 34 38  1  0  0  0
 35 36  1  0  0  0
 36 37  1  0  0  0
 37 28  1  0  0  0
 37 38  1  0  0  0
 28 29  1  0  0  0
 28 33  2  0  0  0
 29 30  2  0  0  0
 30  1  1  0  0  0
 30 31  1  0  0  0
  1  2  1  0  0  0
  1  5  1  0  0  0
  2  3  2  0  0  0
  2  4  1  0  0  0
  4  7  1  0  0  0
  4  6  1  0  0  0
  7  8  1  0  0  0
  7 13  2  0  0  0
  8  9  2  0  0  0
  9 10  1  0  0  0
 10 14  1  0  0  0
 10 11  2  0  0  0
 14 15  1  0  0  0
 15 16  1  0  0  0
 15 20  2  0  0  0
 16 17  2  0  0  0
 17 18  1  0  0  0
 18 19  2  0  0  0
 19 21  1  0  0  0
 19 20  1  0  0  0
 21 22  1  0  0  0
 21 24  1  0  0  0
 22 23  2  0  0  0
 22 25  1  0  0  0
 25 26  1  0  0  0
 25 27  1  0  0  0
 26 27  1  0  0  0
 11 12  1  0  0  0
 11 13  1  0  0  0
 31 32  2  0  0  0
 32 42  1  0  0  0
 32 33  1  0  0  0
 42 43  1  0  0  0
 42 44  1  0  0  0
 42 45  1  0  0  0
M  END
> <minimizedAffinity>
-12.34043

$$$$
