CHEMBL1933552


 34 39  0  0  0  0  0  0  0  0999 V2000
  -29.3138   -7.5162   -7.2813 N   0  0  0  0  0  0  0  0  0  0  0  0
  -30.6625   -6.9642   -7.3020 C   0  0  0  0  0  0  0  0  0  0  0  0
  -30.5523   -5.4481   -7.2970 C   0  0  0  0  0  0  0  0  0  0  0  0
  -29.0850   -5.1274   -7.0016 C   0  0  0  0  0  0  0  0  0  0  0  0
  -28.4328   -4.2034   -8.0713 C   0  0  0  0  0  0  0  0  0  0  0  0
  -28.2397   -2.8752   -7.4611 N   0  0  0  0  0  0  0  0  0  0  0  0
  -27.8507   -1.6892   -8.0763 C   0  0  0  0  0  0  0  0  0  0  0  0
  -27.8500   -0.6196   -7.4606 O   0  0  0  0  0  0  0  0  0  0  0  0
  -28.5246   -2.9915   -6.0739 C   0  0  0  0  0  0  0  0  0  0  0  0
  -28.4144   -2.0476   -5.0647 C   0  0  0  0  0  0  0  0  0  0  0  0
  -28.7694   -2.3971   -3.7526 C   0  0  0  0  0  0  0  0  0  0  0  0
  -29.2328   -3.6806   -3.4557 C   0  0  0  0  0  0  0  0  0  0  0  0
  -29.3426   -4.6301   -4.4670 C   0  0  0  0  0  0  0  0  0  0  0  0
  -28.9807   -4.2705   -5.7663 C   0  0  0  0  0  0  0  0  0  0  0  0
  -28.3788   -6.4767   -6.8506 C   0  0  0  0  0  0  0  0  0  0  0  0
  -27.4210   -1.6280   -9.4738 C   0  0  0  0  0  0  0  0  0  0  0  0
  -27.9799   -1.6983  -10.7434 C   0  0  0  0  0  0  0  0  0  0  0  0
  -26.9191   -1.6761  -11.7185 C   0  0  0  0  0  0  0  0  0  0  0  0
  -26.8462   -1.7473  -13.1272 C   0  0  0  0  0  0  0  0  0  0  0  0
  -25.5865   -1.7810  -13.7567 C   0  0  0  0  0  0  0  0  0  0  0  0
  -24.4253   -1.7369  -12.9977 C   0  0  0  0  0  0  0  0  0  0  0  0
  -23.2345   -1.8031  -13.6114 F   0  0  0  0  0  0  0  0  0  0  0  0
  -24.4629   -1.6272  -11.6123 C   0  0  0  0  0  0  0  0  0  0  0  0
  -25.7252   -1.5946  -11.0095 C   0  0  0  0  0  0  0  0  0  0  0  0
  -26.0585   -1.4888   -9.6894 N   0  0  0  0  0  0  0  0  0  0  0  0
  -25.4019   -1.3935   -8.9256 H   0  0  0  0  0  0  0  0  0  0  0  0
  -27.7403  -12.0600   -9.8887 C   0  0  0  0  0  0  0  0  0  0  0  0
  -28.6813  -11.1854   -9.0651 C   0  0  0  0  0  0  0  0  0  0  0  0
  -29.4354  -10.1964   -9.9722 C   0  0  0  0  0  0  0  0  0  0  0  0
  -30.0226   -9.0582   -9.1503 C   0  0  0  0  0  0  0  0  0  0  0  0
  -28.8913   -8.2707   -8.4666 C   0  0  0  0  0  0  0  0  0  0  0  0
  -27.6318   -9.1478   -8.2018 C   0  0  0  0  0  0  0  0  0  0  0  0
  -27.9045  -10.5695   -7.9825 N   0  0  0  0  0  0  0  0  0  0  0  0
  -28.4063  -10.6731   -7.1024 H   0  0  0  0  0  0  0  0  0  0  0  0
 27 28  1  0  0  0
 28 29  1  0  0  0
 28 33  1  0  0  0
 29 30  1  0  0  0
 30 31  1  0  0  0
 31  1  1  0  0  0
 31 32  1  0  0  0
  1  2  1  0  0  0
  1 15  1  0  0  0
  2  3  1  0  0  0
  3  4  1  0  0  0
  4  5  1  0  0  0
  4 14  1  0  0  0
  4 15  1  0  0  0
  5  6  1  0  0  0
  6  7  1  0  0  0
  6  9  1  0  0  0
  7  8  2  0  0  0
  7 16  1  0  0  0
 16 17  2  0  0  0
 16 25  1  0  0  0
 17 18  1  0  0  0
 18 19  1  0  0  0
 18 24  2  0  0  0
 19 20  2  0  0  0
 20 21  1  0  0  0
 21 22  1  0  0  0
 21 23  2  0  0  0
 23 24  1  0  0  0
 24 25  1  0  0  0
 25 26  1  0  0  0
  9 10  1  0  0  0
  9 14  2  0  0  0
 10 11  2  0  0  0
 11 12  1  0  0  0
 12 13  2  0  0  0
 13 14  1  0  0  0
 32 33  1  0  0  0
 33 34  1  0  0  0
M  END
> <minimizedAffinity>
-11.34826

$$$$
