CHEMBL2088110


 26 28  0  0  0  0  0  0  0  0999 V2000
  -26.1618   -1.9851  -11.4878 C   0  0  0  0  0  0  0  0  0  0  0  0
  -26.9992   -2.1110  -12.5250 N   0  0  0  0  0  0  0  0  0  0  0  0
  -26.5314   -1.7411  -13.7226 C   0  0  0  0  0  0  0  0  0  0  0  0
  -25.2763   -1.2219  -13.9256 C   0  0  0  0  0  0  0  0  0  0  0  0
  -24.4795   -1.1079  -12.8025 C   0  0  0  0  0  0  0  0  0  0  0  0
  -24.9237   -1.4886  -11.5865 N   0  0  0  0  0  0  0  0  0  0  0  0
  -26.6702   -2.4279  -10.2743 N   0  0  0  0  0  0  0  0  0  0  0  0
  -26.8490   -3.4162  -10.4105 H   0  0  0  0  0  0  0  0  0  0  0  0
  -27.7853   -1.6690   -9.7340 C   0  0  0  0  0  0  0  0  0  0  0  0
  -28.1123   -0.2161   -4.8362 C   0  0  0  0  0  0  0  0  0  0  0  0
  -27.8388   -0.8643   -6.1413 C   0  0  0  0  0  0  0  0  0  0  0  0
  -27.9634   -0.3468   -7.4494 C   0  0  0  0  0  0  0  0  0  0  0  0
  -27.7551   -1.4358   -8.2660 C   0  0  0  0  0  0  0  0  0  0  0  0
  -27.4414   -2.5120   -7.4982 O   0  0  0  0  0  0  0  0  0  0  0  0
  -27.4696   -2.1514   -6.1671 N   0  0  0  0  0  0  0  0  0  0  0  0
  -23.1577   -0.6534  -12.9938 N   0  0  0  0  0  0  0  0  0  0  0  0
  -22.4891   -1.4098  -13.0541 H   0  0  0  0  0  0  0  0  0  0  0  0
  -22.7068    0.5191  -13.4771 C   0  0  0  0  0  0  0  0  0  0  0  0
  -21.5029    0.7321  -14.1853 C   0  0  0  0  0  0  0  0  0  0  0  0
  -21.4768    2.0814  -14.4777 C   0  0  0  0  0  0  0  0  0  0  0  0
  -22.6520    2.5676  -13.9866 N   0  0  0  0  0  0  0  0  0  0  0  0
  -23.4112    1.6482  -13.3713 N   0  0  0  0  0  0  0  0  0  0  0  0
  -22.9992    3.5172  -14.0358 H   0  0  0  0  0  0  0  0  0  0  0  0
  -20.4912    2.9757  -15.1176 C   0  0  0  0  0  0  0  0  0  0  0  0
  -19.8801    3.7562  -14.1125 O   0  0  0  0  0  0  0  0  0  0  0  0
  -20.6180    4.2739  -13.7290 H   0  0  0  0  0  0  0  0  0  0  0  0
 10 11  1  0  0  0
 11 12  1  0  0  0
 11 15  2  0  0  0
 12 13  2  0  0  0
 13  9  1  0  0  0
 13 14  1  0  0  0
  9  7  1  0  0  0
  7  1  1  0  0  0
  7  8  1  0  0  0
  1  2  1  0  0  0
  1  6  2  0  0  0
  2  3  2  0  0  0
  3  4  1  0  0  0
  4  5  2  0  0  0
  5 16  1  0  0  0
  5  6  1  0  0  0
 16 18  1  0  0  0
 16 17  1  0  0  0
 18 19  1  0  0  0
 18 22  2  0  0  0
 19 20  2  0  0  0
 20 24  1  0  0  0
 20 21  1  0  0  0
 24 25  1  0  0  0
 25 26  1  0  0  0
 21 22  1  0  0  0
 21 23  1  0  0  0
 14 15  1  0  0  0
M  END
> <minimizedAffinity>
-8.38441

$$$$
