CHEMBL1974457


 20 22  0  0  0  0  0  0  0  0999 V2000
  -29.0290   -6.1751   -7.0760 C   0  0  0  0  0  0  0  0  0  0  0  0
  -28.8644   -4.9202   -6.5225 C   0  0  0  0  0  0  0  0  0  0  0  0
  -29.7627   -4.6272   -5.4269 C   0  0  0  0  0  0  0  0  0  0  0  0
  -29.9878   -3.4525   -4.6489 C   0  0  0  0  0  0  0  0  0  0  0  0
  -30.9378   -3.5877   -3.6261 C   0  0  0  0  0  0  0  0  0  0  0  0
  -31.6276   -4.7046   -3.3257 N   0  0  0  0  0  0  0  0  0  0  0  0
  -31.4291   -5.8022   -4.0755 C   0  0  0  0  0  0  0  0  0  0  0  0
  -30.5150   -5.7727   -5.1293 C   0  0  0  0  0  0  0  0  0  0  0  0
  -30.1814   -7.0732   -6.2057 S   0  0  0  0  0  0  0  0  0  0  0  0
  -29.3097   -2.1605   -4.8982 C   0  0  0  0  0  0  0  0  0  0  0  0
  -27.9103   -2.0311   -4.7352 C   0  0  0  0  0  0  0  0  0  0  0  0
  -27.2557   -0.8031   -4.8895 C   0  0  0  0  0  0  0  0  0  0  0  0
  -27.9811    0.3271   -5.2436 C   0  0  0  0  0  0  0  0  0  0  0  0
  -29.3512    0.2196   -5.4240 C   0  0  0  0  0  0  0  0  0  0  0  0
  -30.0565    1.3045   -5.7686 F   0  0  0  0  0  0  0  0  0  0  0  0
  -30.0142   -0.9939   -5.2379 C   0  0  0  0  0  0  0  0  0  0  0  0
  -28.5042   -7.8312   -8.6954 O   0  0  0  0  0  0  0  0  0  0  0  0
  -28.3402   -6.7085   -8.2373 C   0  0  0  0  0  0  0  0  0  0  0  0
  -27.4523   -5.8385   -8.7851 O   0  0  0  0  0  0  0  0  0  0  0  0
  -27.4240   -4.9913   -8.2994 H   0  0  0  0  0  0  0  0  0  0  0  0
 17 18  2  0  0  0
 18 19  1  0  0  0
 18  1  1  0  0  0
 19 20  1  0  0  0
  1  2  2  0  0  0
  1  9  1  0  0  0
  2  3  1  0  0  0
  3  4  1  0  0  0
  3  8  2  0  0  0
  4 10  1  0  0  0
  4  5  2  0  0  0
 10 11  1  0  0  0
 10 16  2  0  0  0
 11 12  2  0  0  0
 12 13  1  0  0  0
 13 14  2  0  0  0
 14 15  1  0  0  0
 14 16  1  0  0  0
  5  6  1  0  0  0
  6  7  2  0  0  0
  7  8  1  0  0  0
  8  9  1  0  0  0
M  END
> <minimizedAffinity>
-8.28309

$$$$
