CHEMBL3409418


 34 37  0  0  0  0  0  0  0  0999 V2000
  -16.9693    2.2994  -16.0205 O   0  0  0  0  0  0  0  0  0  0  0  0
  -17.3866    3.3895  -15.6510 C   0  0  0  0  0  0  0  0  0  0  0  0
  -18.6626    3.5867  -15.1290 N   0  0  0  0  0  0  0  0  0  0  0  0
  -16.6503    4.5705  -15.7296 N   0  0  0  0  0  0  0  0  0  0  0  0
  -18.9684    4.5400  -15.0082 H   0  0  0  0  0  0  0  0  0  0  0  0
  -17.0365    5.3859  -15.2800 H   0  0  0  0  0  0  0  0  0  0  0  0
  -15.3555    4.7081  -16.3047 C   0  0  0  0  0  0  0  0  0  0  0  0
  -15.1342    5.0573  -17.6363 C   0  0  0  0  0  0  0  0  0  0  0  0
  -13.8393    5.1728  -18.1513 C   0  0  0  0  0  0  0  0  0  0  0  0
  -12.7254    4.9600  -17.3402 C   0  0  0  0  0  0  0  0  0  0  0  0
  -11.1856    5.1152  -18.1009 Cl  0  0  0  0  0  0  0  0  0  0  0  0
  -12.9009    4.6401  -15.9915 C   0  0  0  0  0  0  0  0  0  0  0  0
  -14.2287    4.5029  -15.4930 C   0  0  0  0  0  0  0  0  0  0  0  0
  -11.7634    4.4573  -15.0181 C   0  0  0  0  0  0  0  0  0  0  0  0
  -10.7234    3.6856  -15.4262 F   0  0  0  0  0  0  0  0  0  0  0  0
  -11.2079    5.6560  -14.6736 F   0  0  0  0  0  0  0  0  0  0  0  0
  -12.1856    3.9070  -13.8433 F   0  0  0  0  0  0  0  0  0  0  0  0
  -19.6513    2.5782  -14.9462 C   0  0  0  0  0  0  0  0  0  0  0  0
  -19.4389    1.2139  -15.1960 C   0  0  0  0  0  0  0  0  0  0  0  0
  -20.4722    0.2700  -15.0611 C   0  0  0  0  0  0  0  0  0  0  0  0
  -21.7295    0.6724  -14.6266 C   0  0  0  0  0  0  0  0  0  0  0  0
  -21.9542    2.0274  -14.3680 C   0  0  0  0  0  0  0  0  0  0  0  0
  -20.9242    2.9712  -14.5155 C   0  0  0  0  0  0  0  0  0  0  0  0
  -22.8361   -0.1433  -14.5972 O   0  0  0  0  0  0  0  0  0  0  0  0
  -23.3376   -0.7016  -13.4344 C   0  0  0  0  0  0  0  0  0  0  0  0
  -22.6504   -0.7746  -12.2289 C   0  0  0  0  0  0  0  0  0  0  0  0
  -23.3178   -1.2952  -11.1346 C   0  0  0  0  0  0  0  0  0  0  0  0
  -24.5993   -1.7184  -11.1549 N   0  0  0  0  0  0  0  0  0  0  0  0
  -25.2736   -1.6369  -12.3120 C   0  0  0  0  0  0  0  0  0  0  0  0
  -26.6011   -2.0516  -12.3395 C   0  0  0  0  0  0  0  0  0  0  0  0
  -27.3681   -2.0008  -13.5059 C   0  0  0  0  0  0  0  0  0  0  0  0
  -26.8007   -1.5217  -14.6777 C   0  0  0  0  0  0  0  0  0  0  0  0
  -25.4733   -1.0925  -14.6731 C   0  0  0  0  0  0  0  0  0  0  0  0
  -24.6891   -1.1393  -13.4954 C   0  0  0  0  0  0  0  0  0  0  0  0
  1  2  2  0  0  0
  2  3  1  0  0  0
  2  4  1  0  0  0
  3 18  1  0  0  0
  3  5  1  0  0  0
 18 19  1  0  0  0
 18 23  2  0  0  0
 19 20  2  0  0  0
 20 21  1  0  0  0
 21 24  1  0  0  0
 21 22  2  0  0  0
 24 25  1  0  0  0
 25 26  1  0  0  0
 25 34  2  0  0  0
 26 27  2  0  0  0
 27 28  1  0  0  0
 28 29  2  0  0  0
 29 30  1  0  0  0
 29 34  1  0  0  0
 30 31  2  0  0  0
 31 32  1  0  0  0
 32 33  2  0  0  0
 33 34  1  0  0  0
 22 23  1  0  0  0
  4  7  1  0  0  0
  4  6  1  0  0  0
  7  8  1  0  0  0
  7 13  2  0  0  0
  8  9  2  0  0  0
  9 10  1  0  0  0
 10 11  1  0  0  0
 10 12  2  0  0  0
 12 14  1  0  0  0
 12 13  1  0  0  0
 14 15  1  0  0  0
 14 16  1  0  0  0
 14 17  1  0  0  0
M  END
> <minimizedAffinity>
-9.83436

$$$$
