CHEMBL219293


 41 47  0  0  0  0  0  0  0  0999 V2000
  -29.6361   -5.6942   -4.3805 N   0  0  0  0  0  0  0  0  0  0  0  0
  -29.4230   -6.8667   -5.1451 C   0  0  0  0  0  0  0  0  0  0  0  0
  -29.3553   -8.2292   -4.7925 C   0  0  0  0  0  0  0  0  0  0  0  0
  -29.0276   -9.1811   -5.7858 C   0  0  0  0  0  0  0  0  0  0  0  0
  -28.8111   -8.8169   -7.1139 C   0  0  0  0  0  0  0  0  0  0  0  0
  -28.8781   -7.4607   -7.4448 C   0  0  0  0  0  0  0  0  0  0  0  0
  -29.1528   -6.4851   -6.4638 C   0  0  0  0  0  0  0  0  0  0  0  0
  -29.1418   -5.1085   -6.3781 C   0  0  0  0  0  0  0  0  0  0  0  0
  -28.5227   -4.2942   -7.3370 C   0  0  0  0  0  0  0  0  0  0  0  0
  -28.1419   -3.0170   -6.8861 C   0  0  0  0  0  0  0  0  0  0  0  0
  -28.4702   -2.5041   -5.6194 C   0  0  0  0  0  0  0  0  0  0  0  0
  -29.6075   -3.1554   -5.0355 C   0  0  0  0  0  0  0  0  0  0  0  0
  -29.5823   -4.5625   -5.2031 C   0  0  0  0  0  0  0  0  0  0  0  0
  -30.9258   -2.2710   -5.2199 C   0  0  0  0  0  0  0  0  0  0  0  0
  -30.7461   -0.9920   -6.1489 C   0  0  0  0  0  0  0  0  0  0  0  0
  -29.5232   -0.2917   -5.6726 C   0  0  0  0  0  0  0  0  0  0  0  0
  -29.4329    0.9345   -5.1605 N   0  0  0  0  0  0  0  0  0  0  0  0
  -28.2541    0.8813   -4.4882 N   0  0  0  0  0  0  0  0  0  0  0  0
  -27.8480    1.9947   -3.6633 C   0  0  0  0  0  0  0  0  0  0  0  0
  -27.6671   -0.3594   -4.5023 C   0  0  0  0  0  0  0  0  0  0  0  0
  -28.3920   -1.0812   -5.4141 C   0  0  0  0  0  0  0  0  0  0  0  0
  -27.5335   -2.3364   -8.0064 C   0  0  0  0  0  0  0  0  0  0  0  0
  -27.0937   -1.2090   -8.1717 O   0  0  0  0  0  0  0  0  0  0  0  0
  -27.5795   -3.2638   -9.0415 N   0  0  0  0  0  0  0  0  0  0  0  0
  -28.1389   -4.5535   -8.7171 C   0  0  0  0  0  0  0  0  0  0  0  0
  -27.2843   -2.9845   -9.9646 H   0  0  0  0  0  0  0  0  0  0  0  0
  -28.5163   -9.7023   -8.1844 N   0  0  0  0  0  0  0  0  0  0  0  0
  -28.4979   -9.4167   -9.5353 C   0  0  0  0  0  0  0  0  0  0  0  0
  -28.8317   -8.3142   -9.9582 O   0  0  0  0  0  0  0  0  0  0  0  0
  -28.0953  -10.4839  -10.3859 N   0  0  0  0  0  0  0  0  0  0  0  0
  -27.8988  -11.8787   -9.9458 C   0  0  0  0  0  0  0  0  0  0  0  0
  -28.3917  -10.6553   -7.9030 H   0  0  0  0  0  0  0  0  0  0  0  0
  -27.9498  -10.2614  -11.8200 C   0  0  0  0  0  0  0  0  0  0  0  0
  -26.9947   -9.3754  -12.3432 C   0  0  0  0  0  0  0  0  0  0  0  0
  -26.8827   -9.1354  -13.7111 C   0  0  0  0  0  0  0  0  0  0  0  0
  -27.7084   -9.8045  -14.6125 C   0  0  0  0  0  0  0  0  0  0  0  0
  -28.6353  -10.7201  -14.1294 C   0  0  0  0  0  0  0  0  0  0  0  0
  -28.7507  -10.9458  -12.7525 C   0  0  0  0  0  0  0  0  0  0  0  0
  -29.7344   -5.6870   -2.9242 C   0  0  0  0  0  0  0  0  0  0  0  0
  -32.2658   -5.2066   -2.9780 C   0  0  0  0  0  0  0  0  0  0  0  0
  -31.1286   -5.9828   -2.3334 C   0  0  0  0  0  0  0  0  0  0  0  0
 40 41  1  0  0  0
 41 39  1  0  0  0
 39  1  1  0  0  0
  1  2  1  0  0  0
  1 13  1  0  0  0
  2  3  1  0  0  0
  2  7  2  0  0  0
  3  4  2  0  0  0
  4  5  1  0  0  0
  5 27  1  0  0  0
  5  6  2  0  0  0
 27 28  1  0  0  0
 27 32  1  0  0  0
 28 29  2  0  0  0
 28 30  1  0  0  0
 30 31  1  0  0  0
 30 33  1  0  0  0
 33 34  1  0  0  0
 33 38  2  0  0  0
 34 35  2  0  0  0
 35 36  1  0  0  0
 36 37  2  0  0  0
 37 38  1  0  0  0
  6  7  1  0  0  0
  7  8  1  0  0  0
  8  9  1  0  0  0
  8 13  2  0  0  0
  9 10  2  0  0  0
  9 25  1  0  0  0
 10 11  1  0  0  0
 10 22  1  0  0  0
 11 12  2  0  0  0
 11 21  1  0  0  0
 12 13  1  0  0  0
 12 14  1  0  0  0
 14 15  1  0  0  0
 15 16  1  0  0  0
 16 17  2  0  0  0
 16 21  1  0  0  0
 17 18  1  0  0  0
 18 19  1  0  0  0
 18 20  1  0  0  0
 20 21  2  0  0  0
 22 23  2  0  0  0
 22 24  1  0  0  0
 24 25  1  0  0  0
 24 26  1  0  0  0
M  END
> <minimizedAffinity>
-3.40097

$$$$
