CHEMBL495762


 33 37  0  0  0  0  0  0  0  0999 V2000
  -14.5329   -4.1950  -12.8295 C   0  0  0  0  0  0  0  0  0  0  0  0
  -15.6516   -3.6409  -12.1762 C   0  0  0  0  0  0  0  0  0  0  0  0
  -15.9104   -2.2659  -12.1231 C   0  0  0  0  0  0  0  0  0  0  0  0
  -14.9962   -1.4492  -12.7752 C   0  0  0  0  0  0  0  0  0  0  0  0
  -14.9176   -0.0918  -12.9250 N   0  0  0  0  0  0  0  0  0  0  0  0
  -13.8277    0.2010  -13.7119 C   0  0  0  0  0  0  0  0  0  0  0  0
  -13.1882   -0.9129  -14.0391 N   0  0  0  0  0  0  0  0  0  0  0  0
  -13.8920   -1.9373  -13.4561 C   0  0  0  0  0  0  0  0  0  0  0  0
  -13.6479   -3.3198  -13.4782 C   0  0  0  0  0  0  0  0  0  0  0  0
  -15.5337    0.5957  -12.5088 H   0  0  0  0  0  0  0  0  0  0  0  0
  -13.5429    1.5585  -14.0581 C   0  0  0  0  0  0  0  0  0  0  0  0
  -13.8646    2.0191  -15.2954 C   0  0  0  0  0  0  0  0  0  0  0  0
  -14.5866    1.2551  -16.2057 N   0  0  0  0  0  0  0  0  0  0  0  0
  -13.4209    3.3903  -15.7205 C   0  0  0  0  0  0  0  0  0  0  0  0
  -13.6168    3.9848  -16.9897 C   0  0  0  0  0  0  0  0  0  0  0  0
  -14.4995    3.2560  -18.2943 Cl  0  0  0  0  0  0  0  0  0  0  0  0
  -13.0763    5.2462  -17.2953 C   0  0  0  0  0  0  0  0  0  0  0  0
  -12.3467    5.9571  -16.3509 C   0  0  0  0  0  0  0  0  0  0  0  0
  -12.1664    5.4167  -15.0869 C   0  0  0  0  0  0  0  0  0  0  0  0
  -12.6922    4.1548  -14.7822 C   0  0  0  0  0  0  0  0  0  0  0  0
  -12.4655    3.6690  -13.4935 N   0  0  0  0  0  0  0  0  0  0  0  0
  -12.8749    2.4470  -13.0596 C   0  0  0  0  0  0  0  0  0  0  0  0
  -12.7020    2.1142  -11.8883 O   0  0  0  0  0  0  0  0  0  0  0  0
  -14.5479    0.2500  -15.9906 H   0  0  0  0  0  0  0  0  0  0  0  0
  -14.3719    1.4387  -17.1818 H   0  0  0  0  0  0  0  0  0  0  0  0
  -11.9868    4.2383  -12.8067 H   0  0  0  0  0  0  0  0  0  0  0  0
  -13.0324   -9.5568  -13.1956 C   0  0  0  0  0  0  0  0  0  0  0  0
  -13.9607   -8.4381  -13.0485 N   0  0  0  0  0  0  0  0  0  0  0  0
  -13.6394   -7.6593  -11.8270 C   0  0  0  0  0  0  0  0  0  0  0  0
  -14.5235   -6.3984  -11.6601 C   0  0  0  0  0  0  0  0  0  0  0  0
  -14.3903   -5.5724  -12.8678 N   0  0  0  0  0  0  0  0  0  0  0  0
  -14.7693   -6.2894  -14.0978 C   0  0  0  0  0  0  0  0  0  0  0  0
  -13.8877   -7.5515  -14.2351 C   0  0  0  0  0  0  0  0  0  0  0  0
 27 28  1  0  0  0
 28 29  1  0  0  0
 28 33  1  0  0  0
 29 30  1  0  0  0
 30 31  1  0  0  0
 31  1  1  0  0  0
 31 32  1  0  0  0
  1  2  1  0  0  0
  1  9  2  0  0  0
  2  3  2  0  0  0
  3  4  1  0  0  0
  4  5  1  0  0  0
  4  8  2  0  0  0
  5  6  1  0  0  0
  5 10  1  0  0  0
  6 11  1  0  0  0
  6  7  2  0  0  0
 11 12  2  0  0  0
 11 22  1  0  0  0
 12 13  1  0  0  0
 12 14  1  0  0  0
 13 24  1  0  0  0
 13 25  1  0  0  0
 14 15  1  0  0  0
 14 20  2  0  0  0
 15 16  1  0  0  0
 15 17  2  0  0  0
 17 18  1  0  0  0
 18 19  2  0  0  0
 19 20  1  0  0  0
 20 21  1  0  0  0
 21 22  1  0  0  0
 21 26  1  0  0  0
 22 23  2  0  0  0
  7  8  1  0  0  0
  8  9  1  0  0  0
 32 33  1  0  0  0
M  END
> <minimizedAffinity>
-7.53472

$$$$
