CHEMBL396283


 36 39  0  0  0  0  0  0  0  0999 V2000
  -14.3372   -5.0067  -12.3988 C   0  0  0  0  0  0  0  0  0  0  0  0
  -13.1909   -5.7833  -12.2705 C   0  0  0  0  0  0  0  0  0  0  0  0
  -13.1024   -7.0205  -12.9162 C   0  0  0  0  0  0  0  0  0  0  0  0
  -14.1574   -7.5040  -13.6975 C   0  0  0  0  0  0  0  0  0  0  0  0
  -15.3302   -6.7451  -13.7739 C   0  0  0  0  0  0  0  0  0  0  0  0
  -15.4294   -5.5162  -13.1064 C   0  0  0  0  0  0  0  0  0  0  0  0
  -14.0940   -8.7062  -14.4414 N   0  0  0  0  0  0  0  0  0  0  0  0
  -13.3918   -8.8959  -15.6184 C   0  0  0  0  0  0  0  0  0  0  0  0
  -12.6223   -8.0856  -16.1177 O   0  0  0  0  0  0  0  0  0  0  0  0
  -13.6956  -10.1205  -16.2091 N   0  0  0  0  0  0  0  0  0  0  0  0
  -14.5087   -9.5272  -14.0259 H   0  0  0  0  0  0  0  0  0  0  0  0
  -14.6557  -10.4119  -16.0929 H   0  0  0  0  0  0  0  0  0  0  0  0
  -13.0656  -10.4915  -17.4219 C   0  0  0  0  0  0  0  0  0  0  0  0
  -11.9497  -11.3384  -17.4265 C   0  0  0  0  0  0  0  0  0  0  0  0
  -11.2762  -11.6199  -18.6150 C   0  0  0  0  0  0  0  0  0  0  0  0
  -11.7127  -11.0484  -19.8074 C   0  0  0  0  0  0  0  0  0  0  0  0
  -12.8383  -10.2244  -19.8057 C   0  0  0  0  0  0  0  0  0  0  0  0
  -13.3443   -9.4801  -21.2738 Cl  0  0  0  0  0  0  0  0  0  0  0  0
  -13.5372   -9.9649  -18.6244 C   0  0  0  0  0  0  0  0  0  0  0  0
  -14.3086   -3.7818  -11.7676 O   0  0  0  0  0  0  0  0  0  0  0  0
  -16.0445    1.0562  -14.4987 C   0  0  0  0  0  0  0  0  0  0  0  0
  -14.8916    0.6505  -14.9718 N   0  0  0  0  0  0  0  0  0  0  0  0
  -14.5237   -0.3942  -14.1696 C   0  0  0  0  0  0  0  0  0  0  0  0
  -13.3194   -1.1060  -14.1411 C   0  0  0  0  0  0  0  0  0  0  0  0
  -13.2146   -2.2046  -13.2824 C   0  0  0  0  0  0  0  0  0  0  0  0
  -14.3167   -2.6308  -12.5294 C   0  0  0  0  0  0  0  0  0  0  0  0
  -15.4925   -1.8667  -12.4693 C   0  0  0  0  0  0  0  0  0  0  0  0
  -15.5461   -0.7365  -13.2903 C   0  0  0  0  0  0  0  0  0  0  0  0
  -16.4791    0.2568  -13.4712 N   0  0  0  0  0  0  0  0  0  0  0  0
  -17.3487    0.3743  -12.9687 H   0  0  0  0  0  0  0  0  0  0  0  0
  -18.0440    2.0527  -15.2953 C   0  0  0  0  0  0  0  0  0  0  0  0
  -18.7017    1.0316  -15.4360 O   0  0  0  0  0  0  0  0  0  0  0  0
  -16.7165    2.1352  -14.9980 N   0  0  0  0  0  0  0  0  0  0  0  0
  -16.4259    3.0312  -14.6377 H   0  0  0  0  0  0  0  0  0  0  0  0
  -19.9420    3.4251  -15.0529 C   0  0  0  0  0  0  0  0  0  0  0  0
  -18.5438    3.3160  -15.3203 O   0  0  0  0  0  0  0  0  0  0  0  0
 35 36  1  0  0  0
 36 31  1  0  0  0
 31 32  2  0  0  0
 31 33  1  0  0  0
 33 21  1  0  0  0
 33 34  1  0  0  0
 21 22  2  0  0  0
 21 29  1  0  0  0
 22 23  1  0  0  0
 23 24  1  0  0  0
 23 28  2  0  0  0
 24 25  2  0  0  0
 25 26  1  0  0  0
 26 20  1  0  0  0
 26 27  2  0  0  0
 20  1  1  0  0  0
  1  2  1  0  0  0
  1  6  2  0  0  0
  2  3  2  0  0  0
  3  4  1  0  0  0
  4  7  1  0  0  0
  4  5  2  0  0  0
  7  8  1  0  0  0
  7 11  1  0  0  0
  8  9  2  0  0  0
  8 10  1  0  0  0
 10 13  1  0  0  0
 10 12  1  0  0  0
 13 14  1  0  0  0
 13 19  2  0  0  0
 14 15  2  0  0  0
 15 16  1  0  0  0
 16 17  2  0  0  0
 17 18  1  0  0  0
 17 19  1  0  0  0
  5  6  1  0  0  0
 27 28  1  0  0  0
 28 29  1  0  0  0
 29 30  1  0  0  0
M  END
> <minimizedAffinity>
-6.85836

$$$$
