CHEMBL3981432


 34 37  0  0  0  0  0  0  0  0999 V2000
  -14.3004    0.3437  -13.5082 C   0  0  0  0  0  0  0  0  0  0  0  0
  -14.4616    1.3085  -14.5037 C   0  0  0  0  0  0  0  0  0  0  0  0
  -15.7392    1.7634  -14.9211 C   0  0  0  0  0  0  0  0  0  0  0  0
  -15.9459    2.7046  -15.9430 C   0  0  0  0  0  0  0  0  0  0  0  0
  -17.1659    3.1619  -16.2620 N   0  0  0  0  0  0  0  0  0  0  0  0
  -18.1910    2.6214  -15.5918 C   0  0  0  0  0  0  0  0  0  0  0  0
  -18.1089    1.6977  -14.6292 N   0  0  0  0  0  0  0  0  0  0  0  0
  -16.8813    1.2727  -14.2966 C   0  0  0  0  0  0  0  0  0  0  0  0
  -16.7148    0.3246  -13.2913 C   0  0  0  0  0  0  0  0  0  0  0  0
  -15.4497   -0.1652  -12.8916 C   0  0  0  0  0  0  0  0  0  0  0  0
  -12.4909   -1.1531  -14.0300 C   0  0  0  0  0  0  0  0  0  0  0  0
  -13.0786   -0.1725  -13.1791 O   0  0  0  0  0  0  0  0  0  0  0  0
  -14.8280    3.1543  -16.6900 N   0  0  0  0  0  0  0  0  0  0  0  0
  -14.8048    2.7175  -17.6096 H   0  0  0  0  0  0  0  0  0  0  0  0
  -14.1471    4.3874  -16.6332 C   0  0  0  0  0  0  0  0  0  0  0  0
  -13.3702    4.7172  -15.5166 C   0  0  0  0  0  0  0  0  0  0  0  0
  -12.5107    5.8148  -15.5395 C   0  0  0  0  0  0  0  0  0  0  0  0
  -12.4221    6.6159  -16.6797 C   0  0  0  0  0  0  0  0  0  0  0  0
  -11.1212    8.0033  -16.6498 Br  0  0  0  0  0  0  0  0  0  0  0  0
  -13.2364    6.3549  -17.7903 C   0  0  0  0  0  0  0  0  0  0  0  0
  -13.1761    7.3857  -19.1881 Cl  0  0  0  0  0  0  0  0  0  0  0  0
  -14.0888    5.2340  -17.7652 C   0  0  0  0  0  0  0  0  0  0  0  0
  -15.0912    4.8365  -19.1355 Cl  0  0  0  0  0  0  0  0  0  0  0  0
  -15.5576   -1.1176  -11.9152 O   0  0  0  0  0  0  0  0  0  0  0  0
  -15.8541   -2.4770  -12.2501 C   0  0  0  0  0  0  0  0  0  0  0  0
  -15.0928   -3.4005  -11.2697 C   0  0  0  0  0  0  0  0  0  0  0  0
  -13.7570   -3.9147  -11.8424 C   0  0  0  0  0  0  0  0  0  0  0  0
  -13.9479   -4.9284  -12.9019 N   0  0  0  0  0  0  0  0  0  0  0  0
  -12.6581   -5.2997  -13.4795 C   0  0  0  0  0  0  0  0  0  0  0  0
  -14.7857   -6.0633  -12.4164 C   0  0  0  0  0  0  0  0  0  0  0  0
  -15.1984   -6.9535  -13.6090 C   0  0  0  0  0  0  0  0  0  0  0  0
  -14.0797   -6.9572  -11.3705 C   0  0  0  0  0  0  0  0  0  0  0  0
  -16.1058   -5.4981  -11.7938 C   0  0  0  0  0  0  0  0  0  0  0  0
  -15.8876   -4.5018  -10.7901 O   0  0  0  0  0  0  0  0  0  0  0  0
 11 12  1  0  0  0
 12  1  1  0  0  0
  1  2  1  0  0  0
  1 10  2  0  0  0
  2  3  2  0  0  0
  3  4  1  0  0  0
  3  8  1  0  0  0
  4 13  1  0  0  0
  4  5  2  0  0  0
 13 15  1  0  0  0
 13 14  1  0  0  0
 15 16  1  0  0  0
 15 22  2  0  0  0
 16 17  2  0  0  0
 17 18  1  0  0  0
 18 19  1  0  0  0
 18 20  2  0  0  0
 20 21  1  0  0  0
 20 22  1  0  0  0
 22 23  1  0  0  0
  5  6  1  0  0  0
  6  7  2  0  0  0
  7  8  1  0  0  0
  8  9  2  0  0  0
  9 10  1  0  0  0
 10 24  1  0  0  0
 24 25  1  0  0  0
 25 26  1  0  0  0
 26 27  1  0  0  0
 26 34  1  0  0  0
 27 28  1  0  0  0
 28 29  1  0  0  0
 28 30  1  0  0  0
 30 31  1  0  0  0
 30 32  1  0  0  0
 30 33  1  0  0  0
 33 34  1  0  0  0
M  END
> <minimizedAffinity>
-7.64799

$$$$
