CHEMBL3690582


 39 42  0  0  0  0  0  0  0  0999 V2000
  -18.7683    1.9900  -15.2079 C   0  0  0  0  0  0  0  0  0  0  0  0
  -19.2828    0.6142  -15.1634 C   0  0  0  0  0  0  0  0  0  0  0  0
  -20.5369    0.3713  -14.7424 C   0  0  0  0  0  0  0  0  0  0  0  0
  -21.3578    1.4322  -14.3595 N   0  0  0  0  0  0  0  0  0  0  0  0
  -22.6887    1.4787  -13.9560 C   0  0  0  0  0  0  0  0  0  0  0  0
  -22.9032    2.8225  -13.6737 C   0  0  0  0  0  0  0  0  0  0  0  0
  -21.7988    3.5892  -13.9022 N   0  0  0  0  0  0  0  0  0  0  0  0
  -20.8868    2.7440  -14.3209 C   0  0  0  0  0  0  0  0  0  0  0  0
  -19.5527    2.9884  -14.7368 C   0  0  0  0  0  0  0  0  0  0  0  0
  -15.4916    5.2151  -16.9409 N   0  0  0  0  0  0  0  0  0  0  0  0
  -15.7650    3.9053  -16.5284 C   0  0  0  0  0  0  0  0  0  0  0  0
  -17.0446    3.6254  -16.0398 C   0  0  0  0  0  0  0  0  0  0  0  0
  -17.4154    2.3180  -15.7274 C   0  0  0  0  0  0  0  0  0  0  0  0
  -16.5839    1.2751  -15.9488 N   0  0  0  0  0  0  0  0  0  0  0  0
  -15.3691    1.5544  -16.4779 C   0  0  0  0  0  0  0  0  0  0  0  0
  -14.9168    2.8323  -16.7970 C   0  0  0  0  0  0  0  0  0  0  0  0
  -15.9988    5.9397  -16.4387 H   0  0  0  0  0  0  0  0  0  0  0  0
  -14.5062    5.4524  -17.0539 H   0  0  0  0  0  0  0  0  0  0  0  0
  -13.5514    2.9582  -17.3921 C   0  0  0  0  0  0  0  0  0  0  0  0
  -12.8706    1.7807  -17.5068 F   0  0  0  0  0  0  0  0  0  0  0  0
  -13.5865    3.4742  -18.6549 F   0  0  0  0  0  0  0  0  0  0  0  0
  -12.7407    3.7890  -16.6799 F   0  0  0  0  0  0  0  0  0  0  0  0
  -23.6371    0.3646  -13.8208 C   0  0  0  0  0  0  0  0  0  0  0  0
  -24.1043   -0.2567  -14.9884 C   0  0  0  0  0  0  0  0  0  0  0  0
  -24.9845   -1.3307  -14.9234 C   0  0  0  0  0  0  0  0  0  0  0  0
  -25.4134   -1.8035  -13.6866 C   0  0  0  0  0  0  0  0  0  0  0  0
  -24.9500   -1.2307  -12.5017 C   0  0  0  0  0  0  0  0  0  0  0  0
  -24.0558   -0.1479  -12.5791 C   0  0  0  0  0  0  0  0  0  0  0  0
  -25.3383   -1.6891  -11.2197 N   0  0  0  0  0  0  0  0  0  0  0  0
  -26.6142   -1.6536  -10.6947 C   0  0  0  0  0  0  0  0  0  0  0  0
  -27.6307   -1.2539  -11.2473 O   0  0  0  0  0  0  0  0  0  0  0  0
  -26.6578   -2.0982   -9.3916 N   0  0  0  0  0  0  0  0  0  0  0  0
  -24.6162   -2.0705  -10.6314 H   0  0  0  0  0  0  0  0  0  0  0  0
  -25.9902   -2.8104   -9.1326 H   0  0  0  0  0  0  0  0  0  0  0  0
  -27.9704   -2.1466   -8.7294 C   0  0  0  0  0  0  0  0  0  0  0  0
  -28.3625   -3.4981   -8.1129 C   0  0  0  0  0  0  0  0  0  0  0  0
  -28.2798   -3.4834   -6.7622 F   0  0  0  0  0  0  0  0  0  0  0  0
  -29.6532   -3.7847   -8.4202 F   0  0  0  0  0  0  0  0  0  0  0  0
  -27.6068   -4.5157   -8.5723 F   0  0  0  0  0  0  0  0  0  0  0  0
 10 11  1  0  0  0
 10 17  1  0  0  0
 10 18  1  0  0  0
 11 12  1  0  0  0
 11 16  2  0  0  0
 12 13  2  0  0  0
 13  1  1  0  0  0
 13 14  1  0  0  0
  1  2  1  0  0  0
  1  9  2  0  0  0
  2  3  2  0  0  0
  3  4  1  0  0  0
  4  5  1  0  0  0
  4  8  1  0  0  0
  5 23  1  0  0  0
  5  6  2  0  0  0
 23 24  1  0  0  0
 23 28  2  0  0  0
 24 25  2  0  0  0
 25 26  1  0  0  0
 26 27  2  0  0  0
 27 29  1  0  0  0
 27 28  1  0  0  0
 29 30  1  0  0  0
 29 33  1  0  0  0
 30 31  2  0  0  0
 30 32  1  0  0  0
 32 35  1  0  0  0
 32 34  1  0  0  0
 35 36  1  0  0  0
 36 37  1  0  0  0
 36 38  1  0  0  0
 36 39  1  0  0  0
  6  7  1  0  0  0
  7  8  2  0  0  0
  8  9  1  0  0  0
 14 15  2  0  0  0
 15 16  1  0  0  0
 16 19  1  0  0  0
 19 20  1  0  0  0
 19 21  1  0  0  0
 19 22  1  0  0  0
M  END
> <minimizedAffinity>
-10.61649

$$$$
