CHEMBL1242285


 24 26  0  0  0  0  0  0  0  0999 V2000
  -29.1017   -1.2405   -5.5863 N   0  0  0  0  0  0  0  0  0  0  0  0
  -29.5706   -2.3457   -4.9728 N   0  0  0  0  0  0  0  0  0  0  0  0
  -29.1993   -3.3666   -5.7712 C   0  0  0  0  0  0  0  0  0  0  0  0
  -28.5096   -2.8816   -6.9271 C   0  0  0  0  0  0  0  0  0  0  0  0
  -27.9273   -3.4188   -8.0844 C   0  0  0  0  0  0  0  0  0  0  0  0
  -27.8793   -4.7645   -8.4269 N   0  0  0  0  0  0  0  0  0  0  0  0
  -27.3569   -2.5717   -8.9685 N   0  0  0  0  0  0  0  0  0  0  0  0
  -27.3737   -1.2533   -8.6928 C   0  0  0  0  0  0  0  0  0  0  0  0
  -27.9072   -0.6340   -7.6246 N   0  0  0  0  0  0  0  0  0  0  0  0
  -28.4612   -1.5186   -6.7710 C   0  0  0  0  0  0  0  0  0  0  0  0
  -28.6297   -5.3422   -8.0599 H   0  0  0  0  0  0  0  0  0  0  0  0
  -27.6411   -4.9391   -9.3741 H   0  0  0  0  0  0  0  0  0  0  0  0
  -29.5062   -4.7313   -5.4106 C   0  0  0  0  0  0  0  0  0  0  0  0
  -29.1775   -5.2340   -4.1412 C   0  0  0  0  0  0  0  0  0  0  0  0
  -29.4921   -6.5213   -3.7822 C   0  0  0  0  0  0  0  0  0  0  0  0
  -29.1589   -7.0264   -2.5581 O   0  0  0  0  0  0  0  0  0  0  0  0
  -30.1925   -7.3430   -4.6503 C   0  0  0  0  0  0  0  0  0  0  0  0
  -30.5462   -6.8517   -5.9138 C   0  0  0  0  0  0  0  0  0  0  0  0
  -31.5425   -7.9400   -7.0895 Br  0  0  0  0  0  0  0  0  0  0  0  0
  -30.1962   -5.5691   -6.3017 C   0  0  0  0  0  0  0  0  0  0  0  0
  -28.6497   -6.3521   -2.0624 H   0  0  0  0  0  0  0  0  0  0  0  0
  -28.0620    0.8493   -4.8201 C   0  0  0  0  0  0  0  0  0  0  0  0
  -29.3641    0.0681   -5.0022 C   0  0  0  0  0  0  0  0  0  0  0  0
  -30.3668    0.8712   -5.8363 C   0  0  0  0  0  0  0  0  0  0  0  0
 22 23  1  0  0  0
 23 24  1  0  0  0
 23  1  1  0  0  0
  1  2  1  0  0  0
  1 10  1  0  0  0
  2  3  2  0  0  0
  3 13  1  0  0  0
  3  4  1  0  0  0
 13 14  1  0  0  0
 13 20  2  0  0  0
 14 15  2  0  0  0
 15 16  1  0  0  0
 15 17  1  0  0  0
 16 21  1  0  0  0
 17 18  2  0  0  0
 18 19  1  0  0  0
 18 20  1  0  0  0
  4  5  1  0  0  0
  4 10  2  0  0  0
  5  6  1  0  0  0
  5  7  2  0  0  0
  6 11  1  0  0  0
  6 12  1  0  0  0
  7  8  1  0  0  0
  8  9  2  0  0  0
  9 10  1  0  0  0
M  END
> <minimizedAffinity>
-8.43176

$$$$
