CHEMBL146694


 34 37  0  0  0  0  0  0  0  0999 V2000
  -28.6890   -8.2763   -7.2965 C   0  0  0  0  0  0  0  0  0  0  0  0
  -29.1040   -7.8075   -6.0185 C   0  0  0  0  0  0  0  0  0  0  0  0
  -29.1036   -6.4584   -5.6736 C   0  0  0  0  0  0  0  0  0  0  0  0
  -28.7078   -5.5500   -6.6298 C   0  0  0  0  0  0  0  0  0  0  0  0
  -28.2873   -5.9818   -7.8863 C   0  0  0  0  0  0  0  0  0  0  0  0
  -28.2698   -7.3195   -8.2432 C   0  0  0  0  0  0  0  0  0  0  0  0
  -27.9049   -4.8901   -8.6617 N   0  0  0  0  0  0  0  0  0  0  0  0
  -28.0665   -3.6952   -7.9682 C   0  0  0  0  0  0  0  0  0  0  0  0
  -27.7901   -2.5785   -8.3668 O   0  0  0  0  0  0  0  0  0  0  0  0
  -28.6455   -4.0841   -6.6292 C   0  0  0  0  0  0  0  0  0  0  0  0
  -29.1217   -3.3771   -5.5913 C   0  0  0  0  0  0  0  0  0  0  0  0
  -27.5353   -4.9390   -9.5992 H   0  0  0  0  0  0  0  0  0  0  0  0
  -29.2630   -1.9742   -5.4320 C   0  0  0  0  0  0  0  0  0  0  0  0
  -28.2716   -1.2067   -4.8921 N   0  0  0  0  0  0  0  0  0  0  0  0
  -28.6277    0.1180   -4.9020 C   0  0  0  0  0  0  0  0  0  0  0  0
  -27.6671    1.1308   -4.3940 C   0  0  0  0  0  0  0  0  0  0  0  0
  -29.9147    0.2156   -5.4157 C   0  0  0  0  0  0  0  0  0  0  0  0
  -30.3136   -1.1229   -5.7647 C   0  0  0  0  0  0  0  0  0  0  0  0
  -31.6088   -1.5468   -6.3791 C   0  0  0  0  0  0  0  0  0  0  0  0
  -27.3854   -1.5595   -4.5412 H   0  0  0  0  0  0  0  0  0  0  0  0
  -30.7473    1.4642   -5.5677 C   0  0  0  0  0  0  0  0  0  0  0  0
  -30.5911    2.1258   -6.9320 C   0  0  0  0  0  0  0  0  0  0  0  0
  -31.9201    2.5192   -7.5308 C   0  0  0  0  0  0  0  0  0  0  0  0
  -32.9455    1.8657   -7.4838 O   0  0  0  0  0  0  0  0  0  0  0  0
  -31.8528    3.7263   -8.1465 O   0  0  0  0  0  0  0  0  0  0  0  0
  -30.9670    4.1356   -8.1026 H   0  0  0  0  0  0  0  0  0  0  0  0
  -27.6357  -10.6211   -7.2734 C   0  0  0  0  0  0  0  0  0  0  0  0
  -27.7175  -11.9656   -7.6641 C   0  0  0  0  0  0  0  0  0  0  0  0
  -28.8383  -12.4659   -8.3256 C   0  0  0  0  0  0  0  0  0  0  0  0
  -29.9130  -11.6319   -8.5836 C   0  0  0  0  0  0  0  0  0  0  0  0
  -29.8479  -10.2963   -8.1941 C   0  0  0  0  0  0  0  0  0  0  0  0
  -28.7069   -9.7418   -7.5646 C   0  0  0  0  0  0  0  0  0  0  0  0
  -26.2211  -10.6019   -5.3419 C   0  0  0  0  0  0  0  0  0  0  0  0
  -26.5400  -10.0933   -6.6327 O   0  0  0  0  0  0  0  0  0  0  0  0
 33 34  1  0  0  0
 34 27  1  0  0  0
 27 28  1  0  0  0
 27 32  2  0  0  0
 28 29  2  0  0  0
 29 30  1  0  0  0
 30 31  2  0  0  0
 31 32  1  0  0  0
 32  1  1  0  0  0
  1  2  1  0  0  0
  1  6  2  0  0  0
  2  3  2  0  0  0
  3  4  1  0  0  0
  4  5  2  0  0  0
  4 10  1  0  0  0
  5  6  1  0  0  0
  5  7  1  0  0  0
  7  8  1  0  0  0
  7 12  1  0  0  0
  8  9  2  0  0  0
  8 10  1  0  0  0
 10 11  2  0  0  0
 11 13  1  0  0  0
 13 14  1  0  0  0
 13 18  2  0  0  0
 14 15  1  0  0  0
 14 20  1  0  0  0
 15 16  1  0  0  0
 15 17  2  0  0  0
 17 21  1  0  0  0
 17 18  1  0  0  0
 21 22  1  0  0  0
 22 23  1  0  0  0
 23 24  2  0  0  0
 23 25  1  0  0  0
 25 26  1  0  0  0
 18 19  1  0  0  0
M  END
> <minimizedAffinity>
-5.75666

$$$$
