CHEMBL257793


 34 39  0  0  0  0  0  0  0  0999 V2000
  -28.6938   -3.3107   -5.8740 C   0  0  0  0  0  0  0  0  0  0  0  0
  -28.6856   -3.0857   -7.2453 C   0  0  0  0  0  0  0  0  0  0  0  0
  -28.7259   -4.1613   -8.1404 C   0  0  0  0  0  0  0  0  0  0  0  0
  -28.7189   -5.4558   -7.5882 C   0  0  0  0  0  0  0  0  0  0  0  0
  -28.7494   -6.6920   -8.1840 N   0  0  0  0  0  0  0  0  0  0  0  0
  -28.7148   -7.6981   -7.2346 C   0  0  0  0  0  0  0  0  0  0  0  0
  -28.7945   -9.1294   -7.0810 C   0  0  0  0  0  0  0  0  0  0  0  0
  -28.8974  -10.8135   -6.9475 C   0  0  0  0  0  0  0  0  0  0  0  0
  -28.7475   -9.7523   -5.4149 C   0  0  0  0  0  0  0  0  0  0  0  0
  -28.7204   -8.0059   -5.0410 C   0  0  0  0  0  0  0  0  0  0  0  0
  -28.7220   -7.0827   -6.0873 C   0  0  0  0  0  0  0  0  0  0  0  0
  -28.7214   -5.7088   -6.2120 C   0  0  0  0  0  0  0  0  0  0  0  0
  -28.7687   -4.6103   -5.3721 C   0  0  0  0  0  0  0  0  0  0  0  0
  -28.5797   -7.4263   -3.6587 C   0  0  0  0  0  0  0  0  0  0  0  0
  -28.2101   -8.6165   -3.0021 N   0  0  0  0  0  0  0  0  0  0  0  0
  -28.6036   -9.9118   -3.7130 C   0  0  0  0  0  0  0  0  0  0  0  0
  -28.8193  -10.8299   -2.9169 O   0  0  0  0  0  0  0  0  0  0  0  0
  -28.9072  -11.3230   -8.9348 C   0  0  0  0  0  0  0  0  0  0  0  0
  -29.2324  -11.9996  -10.4570 C   0  0  0  0  0  0  0  0  0  0  0  0
  -28.7743  -11.1282  -11.8788 N   0  0  0  0  0  0  0  0  0  0  0  0
  -28.6989  -11.0415  -13.4477 C   0  0  0  0  0  0  0  0  0  0  0  0
  -28.5806   -9.9588  -11.3854 N   0  0  0  0  0  0  0  0  0  0  0  0
  -28.7150  -10.1078  -10.0996 C   0  0  0  0  0  0  0  0  0  0  0  0
  -28.8106   -8.8131   -9.6110 C   0  0  0  0  0  0  0  0  0  0  0  0
  -28.8651   -9.4116   -8.3749 C   0  0  0  0  0  0  0  0  0  0  0  0
  -28.8383   -6.7850   -9.1858 H   0  0  0  0  0  0  0  0  0  0  0  0
  -27.9992   -8.4986   -1.9991 H   0  0  0  0  0  0  0  0  0  0  0  0
  -27.8699   -1.1695   -5.2027 N   0  0  0  0  0  0  0  0  0  0  0  0
  -28.6644   -2.1688   -4.9198 C   0  0  0  0  0  0  0  0  0  0  0  0
  -29.5677   -2.2434   -3.6582 C   0  0  0  0  0  0  0  0  0  0  0  0
  -30.7991   -3.0976   -3.9533 C   0  0  0  0  0  0  0  0  0  0  0  0
  -28.8983   -2.7794   -2.3833 C   0  0  0  0  0  0  0  0  0  0  0  0
  -28.2265    1.0931   -4.8173 C   0  0  0  0  0  0  0  0  0  0  0  0
  -27.9263   -0.1654   -4.2256 O   0  0  0  0  0  0  0  0  0  0  0  0
 33 34  1  0  0  0
 34 28  1  0  0  0
 28 29  2  0  0  0
 29  1  1  0  0  0
 29 30  1  0  0  0
  1  2  1  0  0  0
  1 13  2  0  0  0
  2  3  2  0  0  0
  3  4  1  0  0  0
  4  5  1  0  0  0
  4 12  2  0  0  0
  5  6  1  0  0  0
  5 26  1  0  0  0
  6  7  1  0  0  0
  6 11  2  0  0  0
  7  8  2  0  0  0
  7 25  1  0  0  0
  8  9  1  0  0  0
  8 18  1  0  0  0
  9 10  2  0  0  0
  9 16  1  0  0  0
 10 11  1  0  0  0
 10 14  1  0  0  0
 11 12  1  0  0  0
 12 13  1  0  0  0
 14 15  1  0  0  0
 15 16  1  0  0  0
 15 27  1  0  0  0
 16 17  2  0  0  0
 18 19  2  0  0  0
 18 23  1  0  0  0
 19 20  1  0  0  0
 20 21  1  0  0  0
 20 22  1  0  0  0
 22 23  2  0  0  0
 23 24  1  0  0  0
 24 25  1  0  0  0
 30 31  1  0  0  0
 30 32  1  0  0  0
M  END
> <minimizedAffinity>
-6.73951

$$$$
