CHEMBL3656057


 31 34  0  0  0  0  0  0  0  0999 V2000
  -21.9144    1.2630  -14.2771 C   0  0  0  0  0  0  0  0  0  0  0  0
  -21.6836    2.6026  -13.9551 C   0  0  0  0  0  0  0  0  0  0  0  0
  -20.4772    3.2250  -14.2717 C   0  0  0  0  0  0  0  0  0  0  0  0
  -19.4424    2.4914  -14.8428 C   0  0  0  0  0  0  0  0  0  0  0  0
  -19.6540    1.1463  -15.1579 C   0  0  0  0  0  0  0  0  0  0  0  0
  -20.8809    0.5291  -14.8656 C   0  0  0  0  0  0  0  0  0  0  0  0
  -23.4058   -0.2746  -13.0249 C   0  0  0  0  0  0  0  0  0  0  0  0
  -22.5902   -0.6110  -12.1684 O   0  0  0  0  0  0  0  0  0  0  0  0
  -23.1600    0.6294  -14.0477 N   0  0  0  0  0  0  0  0  0  0  0  0
  -23.9463    0.9420  -14.6047 H   0  0  0  0  0  0  0  0  0  0  0  0
  -27.0932   -1.6801  -10.0084 C   0  0  0  0  0  0  0  0  0  0  0  0
  -26.5695   -1.5630  -11.4099 C   0  0  0  0  0  0  0  0  0  0  0  0
  -27.3061   -1.9895  -12.5120 C   0  0  0  0  0  0  0  0  0  0  0  0
  -26.7833   -1.8650  -13.8031 C   0  0  0  0  0  0  0  0  0  0  0  0
  -25.5164   -1.3036  -13.9954 C   0  0  0  0  0  0  0  0  0  0  0  0
  -25.0562   -1.1927  -15.2512 F   0  0  0  0  0  0  0  0  0  0  0  0
  -24.7627   -0.8694  -12.9124 C   0  0  0  0  0  0  0  0  0  0  0  0
  -25.3004   -1.0029  -11.6209 C   0  0  0  0  0  0  0  0  0  0  0  0
  -18.2199    3.0224  -15.1848 O   0  0  0  0  0  0  0  0  0  0  0  0
  -17.1102    2.2090  -15.2751 C   0  0  0  0  0  0  0  0  0  0  0  0
  -16.0298    2.4341  -16.1231 C   0  0  0  0  0  0  0  0  0  0  0  0
  -14.9849    1.5281  -16.1037 C   0  0  0  0  0  0  0  0  0  0  0  0
  -14.9284    0.4612  -15.2789 N   0  0  0  0  0  0  0  0  0  0  0  0
  -15.9697    0.2879  -14.4278 C   0  0  0  0  0  0  0  0  0  0  0  0
  -17.0707    1.1324  -14.3930 C   0  0  0  0  0  0  0  0  0  0  0  0
  -15.8393   -0.8713  -13.5511 C   0  0  0  0  0  0  0  0  0  0  0  0
  -15.6175   -0.9899  -12.1888 C   0  0  0  0  0  0  0  0  0  0  0  0
  -15.5928   -2.3680  -11.8614 C   0  0  0  0  0  0  0  0  0  0  0  0
  -15.7938   -3.0671  -13.0285 C   0  0  0  0  0  0  0  0  0  0  0  0
  -15.9395   -2.1577  -14.0407 N   0  0  0  0  0  0  0  0  0  0  0  0
  -16.1038   -2.3631  -15.0185 H   0  0  0  0  0  0  0  0  0  0  0  0
 11 12  1  0  0  0
 12 13  1  0  0  0
 12 18  2  0  0  0
 13 14  2  0  0  0
 14 15  1  0  0  0
 15 16  1  0  0  0
 15 17  2  0  0  0
 17  7  1  0  0  0
 17 18  1  0  0  0
  7  8  2  0  0  0
  7  9  1  0  0  0
  9  1  1  0  0  0
  9 10  1  0  0  0
  1  2  1  0  0  0
  1  6  2  0  0  0
  2  3  2  0  0  0
  3  4  1  0  0  0
  4 19  1  0  0  0
  4  5  2  0  0  0
 19 20  1  0  0  0
 20 21  1  0  0  0
 20 25  2  0  0  0
 21 22  2  0  0  0
 22 23  1  0  0  0
 23 24  2  0  0  0
 24 26  1  0  0  0
 24 25  1  0  0  0
 26 27  2  0  0  0
 26 30  1  0  0  0
 27 28  1  0  0  0
 28 29  2  0  0  0
 29 30  1  0  0  0
 30 31  1  0  0  0
  5  6  1  0  0  0
M  END
> <minimizedAffinity>
-11.05585

$$$$
