CHEMBL3985254


 33 36  0  0  0  0  0  0  0  0999 V2000
  -26.8160   -9.2428   -5.0217 C   0  0  0  0  0  0  0  0  0  0  0  0
  -27.4615   -8.0604   -4.6312 C   0  0  0  0  0  0  0  0  0  0  0  0
  -28.7298   -7.6960   -5.1594 C   0  0  0  0  0  0  0  0  0  0  0  0
  -29.4564   -6.5315   -4.8703 C   0  0  0  0  0  0  0  0  0  0  0  0
  -30.6904   -6.3102   -5.3750 N   0  0  0  0  0  0  0  0  0  0  0  0
  -31.1940   -7.2366   -6.1848 C   0  0  0  0  0  0  0  0  0  0  0  0
  -30.5787   -8.3567   -6.5573 N   0  0  0  0  0  0  0  0  0  0  0  0
  -29.3662   -8.5676   -6.0388 C   0  0  0  0  0  0  0  0  0  0  0  0
  -28.7175   -9.7152   -6.4277 C   0  0  0  0  0  0  0  0  0  0  0  0
  -27.4270  -10.0467   -5.9873 C   0  0  0  0  0  0  0  0  0  0  0  0
  -25.3874  -10.3419   -3.4211 C   0  0  0  0  0  0  0  0  0  0  0  0
  -25.5755   -9.3970   -4.4692 O   0  0  0  0  0  0  0  0  0  0  0  0
  -28.8916   -5.5291   -4.0352 N   0  0  0  0  0  0  0  0  0  0  0  0
  -27.9736   -5.8337   -3.7251 H   0  0  0  0  0  0  0  0  0  0  0  0
  -28.9561   -4.1514   -4.3557 C   0  0  0  0  0  0  0  0  0  0  0  0
  -29.6442   -3.2789   -3.5075 C   0  0  0  0  0  0  0  0  0  0  0  0
  -29.8168   -1.9358   -3.8393 C   0  0  0  0  0  0  0  0  0  0  0  0
  -29.2848   -1.4481   -5.0314 C   0  0  0  0  0  0  0  0  0  0  0  0
  -29.5893    0.2054   -5.4253 Cl  0  0  0  0  0  0  0  0  0  0  0  0
  -28.5517   -2.3016   -5.8669 C   0  0  0  0  0  0  0  0  0  0  0  0
  -27.8585   -1.7568   -7.3549 Cl  0  0  0  0  0  0  0  0  0  0  0  0
  -28.3789   -3.6503   -5.5257 C   0  0  0  0  0  0  0  0  0  0  0  0
  -26.7479  -11.1144   -6.5238 O   0  0  0  0  0  0  0  0  0  0  0  0
  -25.8112  -10.7645   -7.5447 C   0  0  0  0  0  0  0  0  0  0  0  0
  -26.3508  -11.0453   -8.9383 C   0  0  0  0  0  0  0  0  0  0  0  0
  -26.8184   -9.7365   -9.5975 C   0  0  0  0  0  0  0  0  0  0  0  0
  -27.5759  -10.0154  -10.8192 N   0  0  0  0  0  0  0  0  0  0  0  0
  -27.1911   -9.4041  -11.9920 C   0  0  0  0  0  0  0  0  0  0  0  0
  -27.9445   -9.6873  -13.2672 C   0  0  0  0  0  0  0  0  0  0  0  0
  -26.2345   -8.6276  -12.0409 O   0  0  0  0  0  0  0  0  0  0  0  0
  -28.6603  -10.9812  -10.6129 C   0  0  0  0  0  0  0  0  0  0  0  0
  -28.0948  -12.2647  -10.0009 C   0  0  0  0  0  0  0  0  0  0  0  0
  -27.4406  -11.9789   -8.7613 O   0  0  0  0  0  0  0  0  0  0  0  0
 11 12  1  0  0  0
 12  1  1  0  0  0
  1  2  1  0  0  0
  1 10  2  0  0  0
  2  3  2  0  0  0
  3  4  1  0  0  0
  3  8  1  0  0  0
  4 13  1  0  0  0
  4  5  2  0  0  0
 13 15  1  0  0  0
 13 14  1  0  0  0
 15 16  1  0  0  0
 15 22  2  0  0  0
 16 17  2  0  0  0
 17 18  1  0  0  0
 18 19  1  0  0  0
 18 20  2  0  0  0
 20 21  1  0  0  0
 20 22  1  0  0  0
  5  6  1  0  0  0
  6  7  2  0  0  0
  7  8  1  0  0  0
  8  9  2  0  0  0
  9 10  1  0  0  0
 10 23  1  0  0  0
 23 24  1  0  0  0
 24 25  1  0  0  0
 25 26  1  0  0  0
 25 33  1  0  0  0
 26 27  1  0  0  0
 27 28  1  0  0  0
 27 31  1  0  0  0
 28 29  1  0  0  0
 28 30  2  0  0  0
 31 32  1  0  0  0
 32 33  1  0  0  0
M  END
> <minimizedAffinity>
-8.45254

$$$$
