CHEMBL3962147


 37 40  0  0  0  0  0  0  0  0999 V2000
  -28.2208   -1.7901   -7.1111 C   0  0  0  0  0  0  0  0  0  0  0  0
  -28.0962   -0.4094   -6.9139 C   0  0  0  0  0  0  0  0  0  0  0  0
  -28.6843    0.2042   -5.8115 C   0  0  0  0  0  0  0  0  0  0  0  0
  -29.4087   -0.5599   -4.9055 C   0  0  0  0  0  0  0  0  0  0  0  0
  -29.6298   -1.9231   -5.1421 C   0  0  0  0  0  0  0  0  0  0  0  0
  -29.0375   -2.5416   -6.2539 C   0  0  0  0  0  0  0  0  0  0  0  0
  -26.6583   -2.6219  -10.2850 N   0  0  0  0  0  0  0  0  0  0  0  0
  -27.4406   -1.8885   -9.4096 C   0  0  0  0  0  0  0  0  0  0  0  0
  -28.0316   -0.8590   -9.7263 O   0  0  0  0  0  0  0  0  0  0  0  0
  -27.4665   -2.4346   -8.1290 N   0  0  0  0  0  0  0  0  0  0  0  0
  -26.6146   -3.6156  -10.1009 H   0  0  0  0  0  0  0  0  0  0  0  0
  -26.6046   -2.8756   -7.8434 H   0  0  0  0  0  0  0  0  0  0  0  0
  -24.7178   -1.1152  -13.1466 C   0  0  0  0  0  0  0  0  0  0  0  0
  -25.0584   -1.5842  -11.8579 C   0  0  0  0  0  0  0  0  0  0  0  0
  -26.3004   -2.1806  -11.5823 C   0  0  0  0  0  0  0  0  0  0  0  0
  -27.2007   -2.3555  -12.6295 C   0  0  0  0  0  0  0  0  0  0  0  0
  -26.8843   -1.8937  -13.9127 C   0  0  0  0  0  0  0  0  0  0  0  0
  -25.6575   -1.2677  -14.1699 C   0  0  0  0  0  0  0  0  0  0  0  0
  -25.3907   -0.6932  -15.7760 Cl  0  0  0  0  0  0  0  0  0  0  0  0
  -22.5953   -0.3625  -12.0230 C   0  0  0  0  0  0  0  0  0  0  0  0
  -23.3675   -0.4535  -13.3322 C   0  0  0  0  0  0  0  0  0  0  0  0
  -23.4384    0.7977  -13.8698 F   0  0  0  0  0  0  0  0  0  0  0  0
  -22.5785   -1.1493  -14.2106 F   0  0  0  0  0  0  0  0  0  0  0  0
  -30.3277   -2.7287   -4.2555 O   0  0  0  0  0  0  0  0  0  0  0  0
  -30.0530   -4.0965   -4.2617 C   0  0  0  0  0  0  0  0  0  0  0  0
  -30.9097   -4.9228   -4.9657 C   0  0  0  0  0  0  0  0  0  0  0  0
  -30.6100   -6.2720   -4.9284 C   0  0  0  0  0  0  0  0  0  0  0  0
  -29.5368   -6.7352   -4.2770 N   0  0  0  0  0  0  0  0  0  0  0  0
  -28.7806   -5.8564   -3.6206 C   0  0  0  0  0  0  0  0  0  0  0  0
  -29.0027   -4.5472   -3.5531 N   0  0  0  0  0  0  0  0  0  0  0  0
  -31.4658   -7.1871   -5.5746 N   0  0  0  0  0  0  0  0  0  0  0  0
  -31.2643   -7.6459   -6.8652 C   0  0  0  0  0  0  0  0  0  0  0  0
  -30.3843   -7.3040   -7.6404 O   0  0  0  0  0  0  0  0  0  0  0  0
  -32.2483   -7.5438   -5.0545 H   0  0  0  0  0  0  0  0  0  0  0  0
  -32.2221   -8.6777   -7.3685 C   0  0  0  0  0  0  0  0  0  0  0  0
  -32.0831  -10.1080   -6.9053 C   0  0  0  0  0  0  0  0  0  0  0  0
  -31.9449   -9.7720   -8.3626 C   0  0  0  0  0  0  0  0  0  0  0  0
 20 21  1  0  0  0
 21 22  1  0  0  0
 21 23  1  0  0  0
 21 13  1  0  0  0
 13 14  1  0  0  0
 13 18  2  0  0  0
 14 15  2  0  0  0
 15  7  1  0  0  0
 15 16  1  0  0  0
  7  8  1  0  0  0
  7 11  1  0  0  0
  8  9  2  0  0  0
  8 10  1  0  0  0
 10  1  1  0  0  0
 10 12  1  0  0  0
  1  2  1  0  0  0
  1  6  2  0  0  0
  2  3  2  0  0  0
  3  4  1  0  0  0
  4  5  2  0  0  0
  5 24  1  0  0  0
  5  6  1  0  0  0
 24 25  1  0  0  0
 25 26  1  0  0  0
 25 30  2  0  0  0
 26 27  2  0  0  0
 27 31  1  0  0  0
 27 28  1  0  0  0
 31 32  1  0  0  0
 31 34  1  0  0  0
 32 33  2  0  0  0
 32 35  1  0  0  0
 35 36  1  0  0  0
 35 37  1  0  0  0
 36 37  1  0  0  0
 28 29  2  0  0  0
 29 30  1  0  0  0
 16 17  2  0  0  0
 17 18  1  0  0  0
 18 19  1  0  0  0
M  END
> <minimizedAffinity>
-10.65090

$$$$
