CHEMBL1076196


 46 51  0  0  0  0  0  0  0  0999 V2000
  -28.1150   -2.8172   -4.4266 C   0  0  0  0  0  0  0  0  0  0  0  0
  -28.0487   -1.5934   -3.9288 N   0  0  0  0  0  0  0  0  0  0  0  0
  -28.3058   -0.7443   -4.9621 C   0  0  0  0  0  0  0  0  0  0  0  0
  -28.3147    0.6603   -4.9645 C   0  0  0  0  0  0  0  0  0  0  0  0
  -28.5768    1.3367   -6.1603 C   0  0  0  0  0  0  0  0  0  0  0  0
  -28.8372    0.6256   -7.3301 C   0  0  0  0  0  0  0  0  0  0  0  0
  -28.8433   -0.7742   -7.3430 C   0  0  0  0  0  0  0  0  0  0  0  0
  -28.5622   -1.4418   -6.1396 C   0  0  0  0  0  0  0  0  0  0  0  0
  -28.5166   -2.7841   -5.7677 N   0  0  0  0  0  0  0  0  0  0  0  0
  -28.7431   -3.8921   -6.6353 C   0  0  0  0  0  0  0  0  0  0  0  0
  -29.9631   -4.5458   -6.6233 C   0  0  0  0  0  0  0  0  0  0  0  0
  -30.0913   -5.6648   -7.4238 C   0  0  0  0  0  0  0  0  0  0  0  0
  -29.0869   -6.0734   -8.2128 N   0  0  0  0  0  0  0  0  0  0  0  0
  -27.9667   -5.3417   -8.2068 C   0  0  0  0  0  0  0  0  0  0  0  0
  -27.7443   -4.2562   -7.4633 N   0  0  0  0  0  0  0  0  0  0  0  0
  -31.3479   -6.2894   -7.5053 N   0  0  0  0  0  0  0  0  0  0  0  0
  -32.0781   -5.7047   -7.0977 H   0  0  0  0  0  0  0  0  0  0  0  0
  -31.4207   -7.6141   -6.8702 C   0  0  0  0  0  0  0  0  0  0  0  0
  -32.7061   -8.3557   -7.3270 C   0  0  0  0  0  0  0  0  0  0  0  0
  -32.4584   -9.7310   -7.8252 N   0  0  0  0  0  0  0  0  0  0  0  0
  -31.0905   -9.8919   -8.3645 C   0  0  0  0  0  0  0  0  0  0  0  0
  -30.8467  -11.3313   -8.8731 C   0  0  0  0  0  0  0  0  0  0  0  0
  -31.0775  -12.3910   -7.8752 N   0  0  0  0  0  0  0  0  0  0  0  0
  -29.9877  -12.4617   -6.9051 C   0  0  0  0  0  0  0  0  0  0  0  0
  -32.3837  -12.1718   -7.2211 C   0  0  0  0  0  0  0  0  0  0  0  0
  -32.6504  -10.7221   -6.7401 C   0  0  0  0  0  0  0  0  0  0  0  0
  -27.6974   -3.9667   -3.8026 N   0  0  0  0  0  0  0  0  0  0  0  0
  -26.7181   -4.1835   -3.9501 H   0  0  0  0  0  0  0  0  0  0  0  0
  -28.5813   -7.5333   -4.5565 C   0  0  0  0  0  0  0  0  0  0  0  0
  -29.8253   -7.6322   -3.9330 C   0  0  0  0  0  0  0  0  0  0  0  0
  -30.4341   -6.4948   -3.4024 C   0  0  0  0  0  0  0  0  0  0  0  0
  -29.7952   -5.2451   -3.4496 C   0  0  0  0  0  0  0  0  0  0  0  0
  -30.5981   -4.0283   -3.0818 C   0  0  0  0  0  0  0  0  0  0  0  0
  -28.4533   -5.1778   -3.8944 C   0  0  0  0  0  0  0  0  0  0  0  0
  -27.9052   -6.3106   -4.5251 C   0  0  0  0  0  0  0  0  0  0  0  0
  -27.6489   -8.4975   -6.6163 N   0  0  0  0  0  0  0  0  0  0  0  0
  -28.0814   -8.7182   -5.3179 C   0  0  0  0  0  0  0  0  0  0  0  0
  -28.0955   -9.7981   -4.7336 O   0  0  0  0  0  0  0  0  0  0  0  0
  -27.5950   -7.5397   -6.9377 H   0  0  0  0  0  0  0  0  0  0  0  0
  -27.7057  -10.2369  -11.2377 C   0  0  0  0  0  0  0  0  0  0  0  0
  -27.2075  -10.3259   -9.8254 C   0  0  0  0  0  0  0  0  0  0  0  0
  -26.3073  -11.3292   -9.4565 C   0  0  0  0  0  0  0  0  0  0  0  0
  -25.8666  -11.4223   -8.1403 C   0  0  0  0  0  0  0  0  0  0  0  0
  -26.3115  -10.5076   -7.1826 C   0  0  0  0  0  0  0  0  0  0  0  0
  -27.1879   -9.4775   -7.5300 C   0  0  0  0  0  0  0  0  0  0  0  0
  -27.6415   -9.4030   -8.8572 C   0  0  0  0  0  0  0  0  0  0  0  0
 40 41  1  0  0  0
 41 42  1  0  0  0
 41 46  2  0  0  0
 42 43  2  0  0  0
 43 44  1  0  0  0
 44 45  2  0  0  0
 45 36  1  0  0  0
 45 46  1  0  0  0
 36 37  1  0  0  0
 36 39  1  0  0  0
 37 38  2  0  0  0
 37 29  1  0  0  0
 29 30  1  0  0  0
 29 35  2  0  0  0
 30 31  2  0  0  0
 31 32  1  0  0  0
 32 33  1  0  0  0
 32 34  2  0  0  0
 34 27  1  0  0  0
 34 35  1  0  0  0
 27  1  1  0  0  0
 27 28  1  0  0  0
  1  2  2  0  0  0
  1  9  1  0  0  0
  2  3  1  0  0  0
  3  4  1  0  0  0
  3  8  2  0  0  0
  4  5  2  0  0  0
  5  6  1  0  0  0
  6  7  2  0  0  0
  7  8  1  0  0  0
  8  9  1  0  0  0
  9 10  1  0  0  0
 10 11  1  0  0  0
 10 15  2  0  0  0
 11 12  2  0  0  0
 12 16  1  0  0  0
 12 13  1  0  0  0
 16 18  1  0  0  0
 16 17  1  0  0  0
 18 19  1  0  0  0
 19 20  1  0  0  0
 20 21  1  0  0  0
 20 26  1  0  0  0
 21 22  1  0  0  0
 22 23  1  0  0  0
 23 24  1  0  0  0
 23 25  1  0  0  0
 25 26  1  0  0  0
 13 14  2  0  0  0
 14 15  1  0  0  0
M  END
> <minimizedAffinity>
-7.79558

$$$$
