CHEMBL388978


 37 44  0  0  0  0  0  0  0  0999 V2000
  -26.1106  -11.2658   -3.4459 C   0  0  0  0  0  0  0  0  0  0  0  0
  -25.5863  -11.5755   -4.8948 C   0  0  0  0  0  0  0  0  0  0  0  0
  -26.7439  -11.4037   -5.9472 C   0  0  0  0  0  0  0  0  0  0  0  0
  -27.9688  -11.3340   -5.2149 O   0  0  0  0  0  0  0  0  0  0  0  0
  -28.1075  -10.1876   -4.3142 C   0  0  0  0  0  0  0  0  0  0  0  0
  -29.3229  -10.7159   -3.5217 C   0  0  0  0  0  0  0  0  0  0  0  0
  -26.8025   -9.9055   -3.5418 C   0  0  0  0  0  0  0  0  0  0  0  0
  -28.4463   -8.9497   -5.0173 N   0  0  0  0  0  0  0  0  0  0  0  0
  -29.1974   -7.8556   -4.5548 C   0  0  0  0  0  0  0  0  0  0  0  0
  -29.3582   -7.3490   -3.2549 C   0  0  0  0  0  0  0  0  0  0  0  0
  -30.1285   -6.1962   -3.0721 C   0  0  0  0  0  0  0  0  0  0  0  0
  -30.7393   -5.5605   -4.1469 C   0  0  0  0  0  0  0  0  0  0  0  0
  -30.6680   -6.1040   -5.4320 C   0  0  0  0  0  0  0  0  0  0  0  0
  -29.9215   -7.2807   -5.6543 C   0  0  0  0  0  0  0  0  0  0  0  0
  -29.6725   -8.0866   -6.8020 C   0  0  0  0  0  0  0  0  0  0  0  0
  -30.7953   -8.7931   -7.3577 C   0  0  0  0  0  0  0  0  0  0  0  0
  -30.4915  -10.0335   -7.9768 C   0  0  0  0  0  0  0  0  0  0  0  0
  -29.1277  -10.3775   -7.8835 C   0  0  0  0  0  0  0  0  0  0  0  0
  -28.4583  -11.5266   -8.3825 C   0  0  0  0  0  0  0  0  0  0  0  0
  -28.8274  -12.4573   -9.3487 C   0  0  0  0  0  0  0  0  0  0  0  0
  -28.5310  -12.0023  -10.6248 C   0  0  0  0  0  0  0  0  0  0  0  0
  -27.6067  -10.9615  -10.8109 C   0  0  0  0  0  0  0  0  0  0  0  0
  -26.8000  -10.4886   -9.7411 C   0  0  0  0  0  0  0  0  0  0  0  0
  -27.1023  -10.9885   -8.4449 C   0  0  0  0  0  0  0  0  0  0  0  0
  -26.8724  -10.4449   -7.0888 N   0  0  0  0  0  0  0  0  0  0  0  0
  -28.0813   -9.7743   -7.1762 C   0  0  0  0  0  0  0  0  0  0  0  0
  -28.5368   -8.7815   -6.3481 C   0  0  0  0  0  0  0  0  0  0  0  0
  -31.6583  -10.6786   -8.3943 C   0  0  0  0  0  0  0  0  0  0  0  0
  -31.9052  -11.7136   -9.0126 O   0  0  0  0  0  0  0  0  0  0  0  0
  -32.6756   -9.8261   -7.9270 N   0  0  0  0  0  0  0  0  0  0  0  0
  -32.2221   -8.7015   -7.1261 C   0  0  0  0  0  0  0  0  0  0  0  0
  -33.6248  -10.0507   -8.1311 H   0  0  0  0  0  0  0  0  0  0  0  0
  -23.7612  -11.3539   -2.7768 C   0  0  0  0  0  0  0  0  0  0  0  0
  -25.1622  -11.4079   -2.3271 N   0  0  0  0  0  0  0  0  0  0  0  0
  -25.3199  -12.2579   -1.7938 H   0  0  0  0  0  0  0  0  0  0  0  0
  -25.9883   -8.9949   -4.3295 O   0  0  0  0  0  0  0  0  0  0  0  0
  -25.2146   -8.0378   -3.6380 C   0  0  0  0  0  0  0  0  0  0  0  0
 33 34  1  0  0  0
 34  1  1  0  0  0
 34 35  1  0  0  0
  1  2  1  0  0  0
  1  7  1  0  0  0
  2  3  1  0  0  0
  3  4  1  0  0  0
  3 25  1  0  0  0
  4  5  1  0  0  0
  5  7  1  0  0  0
  5  8  1  0  0  0
  5  6  1  0  0  0
  7 36  1  0  0  0
 36 37  1  0  0  0
  8  9  1  0  0  0
  8 27  1  0  0  0
  9 10  1  0  0  0
  9 14  2  0  0  0
 10 11  2  0  0  0
 11 12  1  0  0  0
 12 13  2  0  0  0
 13 14  1  0  0  0
 14 15  1  0  0  0
 15 16  1  0  0  0
 15 27  2  0  0  0
 16 17  2  0  0  0
 16 31  1  0  0  0
 17 18  1  0  0  0
 17 28  1  0  0  0
 18 19  1  0  0  0
 18 26  2  0  0  0
 19 20  1  0  0  0
 19 24  2  0  0  0
 20 21  2  0  0  0
 21 22  1  0  0  0
 22 23  2  0  0  0
 23 24  1  0  0  0
 24 25  1  0  0  0
 25 26  1  0  0  0
 26 27  1  0  0  0
 28 30  1  0  0  0
 28 29  2  0  0  0
 30 31  1  0  0  0
 30 32  1  0  0  0
M  END
> <minimizedAffinity>
-8.23284

$$$$
