CHEMBL3909001


 37 41  0  0  0  0  0  0  0  0999 V2000
  -28.2722   -2.2605   -8.0507 C   0  0  0  0  0  0  0  0  0  0  0  0
  -28.8586   -3.4739   -8.3766 C   0  0  0  0  0  0  0  0  0  0  0  0
  -29.1008   -4.4297   -7.3771 C   0  0  0  0  0  0  0  0  0  0  0  0
  -28.8244   -4.1953   -6.0138 C   0  0  0  0  0  0  0  0  0  0  0  0
  -28.2690   -2.9396   -5.6783 C   0  0  0  0  0  0  0  0  0  0  0  0
  -27.9466   -2.5185   -4.2700 C   0  0  0  0  0  0  0  0  0  0  0  0
  -27.9921   -1.9984   -6.7040 C   0  0  0  0  0  0  0  0  0  0  0  0
  -29.1139   -5.2777   -4.9487 C   0  0  0  0  0  0  0  0  0  0  0  0
  -30.6117   -5.6837   -4.8548 C   0  0  0  0  0  0  0  0  0  0  0  0
  -30.9465   -6.6864   -5.9061 N   0  0  0  0  0  0  0  0  0  0  0  0
  -30.1723   -7.7176   -5.8189 C   0  0  0  0  0  0  0  0  0  0  0  0
  -30.2065   -8.8880   -6.6679 C   0  0  0  0  0  0  0  0  0  0  0  0
  -29.7876   -8.8074   -7.9876 C   0  0  0  0  0  0  0  0  0  0  0  0
  -29.5815   -9.9897   -8.6898 C   0  0  0  0  0  0  0  0  0  0  0  0
  -29.8926  -11.2174   -8.0912 C   0  0  0  0  0  0  0  0  0  0  0  0
  -30.1669  -11.2824   -6.7208 C   0  0  0  0  0  0  0  0  0  0  0  0
  -30.1128  -10.0973   -5.9996 C   0  0  0  0  0  0  0  0  0  0  0  0
  -29.5256  -10.0586   -4.7076 N   0  0  0  0  0  0  0  0  0  0  0  0
  -28.7180   -8.9530   -4.3819 C   0  0  0  0  0  0  0  0  0  0  0  0
  -27.7470   -9.0835   -3.6413 O   0  0  0  0  0  0  0  0  0  0  0  0
  -29.1049   -7.7555   -4.9636 N   0  0  0  0  0  0  0  0  0  0  0  0
  -28.2789   -6.5717   -5.1524 C   0  0  0  0  0  0  0  0  0  0  0  0
  -29.2169  -10.9340   -4.3029 H   0  0  0  0  0  0  0  0  0  0  0  0
  -26.7976   -0.7071  -11.0092 N   0  0  0  0  0  0  0  0  0  0  0  0
  -27.0853   -1.7282  -10.0994 C   0  0  0  0  0  0  0  0  0  0  0  0
  -26.7230   -2.8974  -10.2202 O   0  0  0  0  0  0  0  0  0  0  0  0
  -27.9462   -1.3329   -9.0836 N   0  0  0  0  0  0  0  0  0  0  0  0
  -27.3494    0.1365  -10.9673 H   0  0  0  0  0  0  0  0  0  0  0  0
  -28.7107   -0.7518   -9.3971 H   0  0  0  0  0  0  0  0  0  0  0  0
  -22.3765    0.2837  -13.1706 C   0  0  0  0  0  0  0  0  0  0  0  0
  -23.7564   -0.3165  -13.2018 C   0  0  0  0  0  0  0  0  0  0  0  0
  -24.1833   -0.9461  -14.3765 C   0  0  0  0  0  0  0  0  0  0  0  0
  -25.4133   -1.5847  -14.4122 C   0  0  0  0  0  0  0  0  0  0  0  0
  -26.2360   -1.5733  -13.2919 C   0  0  0  0  0  0  0  0  0  0  0  0
  -27.3128   -2.3677  -13.3533 F   0  0  0  0  0  0  0  0  0  0  0  0
  -25.9096   -0.8605  -12.1256 C   0  0  0  0  0  0  0  0  0  0  0  0
  -24.6248   -0.2679  -12.0822 C   0  0  0  0  0  0  0  0  0  0  0  0
 30 31  1  0  0  0
 31 32  1  0  0  0
 31 37  2  0  0  0
 32 33  2  0  0  0
 33 34  1  0  0  0
 34 35  1  0  0  0
 34 36  2  0  0  0
 36 24  1  0  0  0
 36 37  1  0  0  0
 24 25  1  0  0  0
 24 28  1  0  0  0
 25 26  2  0  0  0
 25 27  1  0  0  0
 27  1  1  0  0  0
 27 29  1  0  0  0
  1  2  1  0  0  0
  1  7  2  0  0  0
  2  3  2  0  0  0
  3  4  1  0  0  0
  4  8  1  0  0  0
  4  5  2  0  0  0
  8  9  1  0  0  0
  8 22  1  0  0  0
  9 10  1  0  0  0
 10 11  2  0  0  0
 11 12  1  0  0  0
 11 21  1  0  0  0
 12 13  1  0  0  0
 12 17  2  0  0  0
 13 14  2  0  0  0
 14 15  1  0  0  0
 15 16  2  0  0  0
 16 17  1  0  0  0
 17 18  1  0  0  0
 18 19  1  0  0  0
 18 23  1  0  0  0
 19 20  2  0  0  0
 19 21  1  0  0  0
 21 22  1  0  0  0
  5  6  1  0  0  0
  5  7  1  0  0  0
M  END
> <minimizedAffinity>
-11.46444

$$$$
