CHEMBL3942082


 33 36  0  0  0  0  0  0  0  0999 V2000
  -29.4100   -7.9734   -6.7518 C   0  0  0  0  0  0  0  0  0  0  0  0
  -28.9562   -8.0269   -8.0877 C   0  0  0  0  0  0  0  0  0  0  0  0
  -28.0422   -8.9597   -8.5481 C   0  0  0  0  0  0  0  0  0  0  0  0
  -27.6719   -8.9276   -9.8330 N   0  0  0  0  0  0  0  0  0  0  0  0
  -26.8009   -9.8615  -10.2239 C   0  0  0  0  0  0  0  0  0  0  0  0
  -26.2951  -10.8296   -9.4564 N   0  0  0  0  0  0  0  0  0  0  0  0
  -26.7056  -10.8631   -8.1749 C   0  0  0  0  0  0  0  0  0  0  0  0
  -27.5649   -9.8975   -7.6466 C   0  0  0  0  0  0  0  0  0  0  0  0
  -27.9636   -9.8354   -6.2975 C   0  0  0  0  0  0  0  0  0  0  0  0
  -28.8831   -8.8920   -5.8362 C   0  0  0  0  0  0  0  0  0  0  0  0
  -26.2766  -11.9227   -7.3305 N   0  0  0  0  0  0  0  0  0  0  0  0
  -26.3441  -12.7948   -7.8473 H   0  0  0  0  0  0  0  0  0  0  0  0
  -25.1368  -11.8620   -6.5108 C   0  0  0  0  0  0  0  0  0  0  0  0
  -25.2201  -12.1901   -5.1499 C   0  0  0  0  0  0  0  0  0  0  0  0
  -24.1213  -12.0640   -4.3198 C   0  0  0  0  0  0  0  0  0  0  0  0
  -22.9065  -11.6049   -4.8332 C   0  0  0  0  0  0  0  0  0  0  0  0
  -21.5921  -11.4163   -3.7345 Cl  0  0  0  0  0  0  0  0  0  0  0  0
  -22.7998  -11.3026   -6.1980 C   0  0  0  0  0  0  0  0  0  0  0  0
  -21.3300  -10.7309   -6.9063 Cl  0  0  0  0  0  0  0  0  0  0  0  0
  -23.9094  -11.4434   -7.0336 C   0  0  0  0  0  0  0  0  0  0  0  0
  -29.0842   -9.0677   -4.5033 O   0  0  0  0  0  0  0  0  0  0  0  0
  -28.0218   -9.1262   -3.5718 C   0  0  0  0  0  0  0  0  0  0  0  0
  -30.3511   -7.0621   -6.3445 O   0  0  0  0  0  0  0  0  0  0  0  0
  -29.8872   -5.7622   -5.9114 C   0  0  0  0  0  0  0  0  0  0  0  0
  -30.0068   -2.9659   -4.1650 N   0  0  0  0  0  0  0  0  0  0  0  0
  -28.7146   -3.1733   -3.4718 C   0  0  0  0  0  0  0  0  0  0  0  0
  -28.0022   -4.4885   -3.8393 C   0  0  0  0  0  0  0  0  0  0  0  0
  -28.8411   -5.6385   -3.6725 O   0  0  0  0  0  0  0  0  0  0  0  0
  -30.0872   -5.5292   -4.3911 C   0  0  0  0  0  0  0  0  0  0  0  0
  -30.7975   -4.2021   -4.0097 C   0  0  0  0  0  0  0  0  0  0  0  0
  -29.8195   -2.5024   -5.5442 C   0  0  0  0  0  0  0  0  0  0  0  0
  -27.9429   -1.3420   -6.7600 C   0  0  0  0  0  0  0  0  0  0  0  0
  -28.9978   -1.2114   -5.6714 C   0  0  0  0  0  0  0  0  0  0  0  0
 32 33  1  0  0  0
 33 31  1  0  0  0
 31 25  1  0  0  0
 25 26  1  0  0  0
 25 30  1  0  0  0
 26 27  1  0  0  0
 27 28  1  0  0  0
 28 29  1  0  0  0
 29 24  1  0  0  0
 29 30  1  0  0  0
 24 23  1  0  0  0
 23  1  1  0  0  0
  1  2  1  0  0  0
  1 10  2  0  0  0
  2  3  2  0  0  0
  3  4  1  0  0  0
  3  8  1  0  0  0
  4  5  2  0  0  0
  5  6  1  0  0  0
  6  7  2  0  0  0
  7 11  1  0  0  0
  7  8  1  0  0  0
 11 13  1  0  0  0
 11 12  1  0  0  0
 13 14  1  0  0  0
 13 20  2  0  0  0
 14 15  2  0  0  0
 15 16  1  0  0  0
 16 17  1  0  0  0
 16 18  2  0  0  0
 18 19  1  0  0  0
 18 20  1  0  0  0
  8  9  2  0  0  0
  9 10  1  0  0  0
 10 21  1  0  0  0
 21 22  1  0  0  0
M  END
> <minimizedAffinity>
-7.44466

$$$$
