CHEMBL464210


 28 31  0  0  0  0  0  0  0  0999 V2000
  -29.6295   -7.9559   -5.5088 C   0  0  0  0  0  0  0  0  0  0  0  0
  -28.4164   -7.3839   -5.1073 C   0  0  0  0  0  0  0  0  0  0  0  0
  -28.2510   -5.9809   -5.0539 C   0  0  0  0  0  0  0  0  0  0  0  0
  -29.2927   -5.1112   -5.4186 C   0  0  0  0  0  0  0  0  0  0  0  0
  -30.4861   -5.7048   -5.8577 C   0  0  0  0  0  0  0  0  0  0  0  0
  -30.6495   -7.0938   -5.9072 C   0  0  0  0  0  0  0  0  0  0  0  0
  -29.1277   -3.6338   -5.3419 C   0  0  0  0  0  0  0  0  0  0  0  0
  -30.0647   -2.7323   -5.5806 N   0  0  0  0  0  0  0  0  0  0  0  0
  -29.5537   -1.4396   -5.4204 C   0  0  0  0  0  0  0  0  0  0  0  0
  -30.2507   -0.2222   -5.5858 C   0  0  0  0  0  0  0  0  0  0  0  0
  -29.5863    0.9997   -5.3897 C   0  0  0  0  0  0  0  0  0  0  0  0
  -28.2431    1.0266   -5.0299 C   0  0  0  0  0  0  0  0  0  0  0  0
  -27.5344   -0.1613   -4.8564 C   0  0  0  0  0  0  0  0  0  0  0  0
  -28.2100   -1.3756   -5.0595 C   0  0  0  0  0  0  0  0  0  0  0  0
  -27.5897   -2.9606   -4.9248 S   0  0  0  0  0  0  0  0  0  0  0  0
  -29.8077   -9.3566   -5.5435 N   0  0  0  0  0  0  0  0  0  0  0  0
  -30.1210   -9.7494   -4.6599 H   0  0  0  0  0  0  0  0  0  0  0  0
  -29.8619  -10.9584   -8.8725 C   0  0  0  0  0  0  0  0  0  0  0  0
  -29.4493  -10.1594   -7.8097 C   0  0  0  0  0  0  0  0  0  0  0  0
  -30.2110  -10.1554   -6.6408 C   0  0  0  0  0  0  0  0  0  0  0  0
  -31.3407  -10.9761   -6.5900 C   0  0  0  0  0  0  0  0  0  0  0  0
  -31.6722  -11.7455   -7.6957 C   0  0  0  0  0  0  0  0  0  0  0  0
  -30.9654  -11.7574   -8.8433 N   0  0  0  0  0  0  0  0  0  0  0  0
  -28.8123   -9.9609  -12.3722 C   0  0  0  0  0  0  0  0  0  0  0  0
  -29.4370  -10.0416  -11.0796 N   0  0  0  0  0  0  0  0  0  0  0  0
  -29.0618  -10.9820  -10.1419 C   0  0  0  0  0  0  0  0  0  0  0  0
  -28.1556  -11.7903  -10.3124 O   0  0  0  0  0  0  0  0  0  0  0  0
  -30.2134   -9.4338  -10.8330 H   0  0  0  0  0  0  0  0  0  0  0  0
 24 25  1  0  0  0
 25 26  1  0  0  0
 25 28  1  0  0  0
 26 27  2  0  0  0
 26 18  1  0  0  0
 18 19  1  0  0  0
 18 23  2  0  0  0
 19 20  2  0  0  0
 20 16  1  0  0  0
 20 21  1  0  0  0
 16  1  1  0  0  0
 16 17  1  0  0  0
  1  2  1  0  0  0
  1  6  2  0  0  0
  2  3  2  0  0  0
  3  4  1  0  0  0
  4  7  1  0  0  0
  4  5  2  0  0  0
  7  8  2  0  0  0
  7 15  1  0  0  0
  8  9  1  0  0  0
  9 10  1  0  0  0
  9 14  2  0  0  0
 10 11  2  0  0  0
 11 12  1  0  0  0
 12 13  2  0  0  0
 13 14  1  0  0  0
 14 15  1  0  0  0
  5  6  1  0  0  0
 21 22  2  0  0  0
 22 23  1  0  0  0
M  END
> <minimizedAffinity>
-8.42544

$$$$
