CHEMBL2071201


 29 32  0  0  0  0  0  0  0  0999 V2000
  -16.3566    0.0470  -14.6653 C   0  0  0  0  0  0  0  0  0  0  0  0
  -15.2675    0.5583  -15.2452 N   0  0  0  0  0  0  0  0  0  0  0  0
  -14.0794    0.1773  -14.7283 C   0  0  0  0  0  0  0  0  0  0  0  0
  -13.9386   -0.7154  -13.6853 C   0  0  0  0  0  0  0  0  0  0  0  0
  -12.2244   -1.2841  -13.1432 Br  0  0  0  0  0  0  0  0  0  0  0  0
  -15.1084   -1.2249  -13.1568 C   0  0  0  0  0  0  0  0  0  0  0  0
  -16.3000   -0.8252  -13.6450 N   0  0  0  0  0  0  0  0  0  0  0  0
  -17.5921    0.3307  -15.2569 N   0  0  0  0  0  0  0  0  0  0  0  0
  -17.8955   -0.4815  -15.7791 H   0  0  0  0  0  0  0  0  0  0  0  0
  -21.5756    2.9483  -14.2873 C   0  0  0  0  0  0  0  0  0  0  0  0
  -20.2197    2.5196  -14.5244 N   0  0  0  0  0  0  0  0  0  0  0  0
  -19.8014    1.2893  -14.9548 C   0  0  0  0  0  0  0  0  0  0  0  0
  -18.4297    1.3423  -14.9512 C   0  0  0  0  0  0  0  0  0  0  0  0
  -18.1202    2.6619  -14.5557 C   0  0  0  0  0  0  0  0  0  0  0  0
  -19.2142    3.3790  -14.2908 N   0  0  0  0  0  0  0  0  0  0  0  0
  -15.1029   -2.1638  -12.1044 N   0  0  0  0  0  0  0  0  0  0  0  0
  -14.4965   -1.8717  -11.3409 H   0  0  0  0  0  0  0  0  0  0  0  0
  -14.9019   -3.5597  -12.5311 C   0  0  0  0  0  0  0  0  0  0  0  0
  -14.4243   -4.5725  -11.4309 C   0  0  0  0  0  0  0  0  0  0  0  0
  -15.4431   -5.7296  -11.5936 C   0  0  0  0  0  0  0  0  0  0  0  0
  -15.2922   -6.3221  -12.9819 C   0  0  0  0  0  0  0  0  0  0  0  0
  -15.7956   -5.4316  -13.8516 C   0  0  0  0  0  0  0  0  0  0  0  0
  -16.2235   -4.2194  -13.0463 C   0  0  0  0  0  0  0  0  0  0  0  0
  -16.7517   -4.9618  -11.8198 C   0  0  0  0  0  0  0  0  0  0  0  0
  -14.4299   -4.0726   -9.9921 C   0  0  0  0  0  0  0  0  0  0  0  0
  -13.4365   -4.5644   -9.1970 N   0  0  0  0  0  0  0  0  0  0  0  0
  -15.2362   -3.2781   -9.5284 O   0  0  0  0  0  0  0  0  0  0  0  0
  -12.6462   -5.0563   -9.5957 H   0  0  0  0  0  0  0  0  0  0  0  0
  -13.3595   -4.1928   -8.2592 H   0  0  0  0  0  0  0  0  0  0  0  0
 10 11  1  0  0  0
 11 12  1  0  0  0
 11 15  1  0  0  0
 12 13  2  0  0  0
 13  8  1  0  0  0
 13 14  1  0  0  0
  8  1  1  0  0  0
  8  9  1  0  0  0
  1  2  1  0  0  0
  1  7  2  0  0  0
  2  3  2  0  0  0
  3  4  1  0  0  0
  4  5  1  0  0  0
  4  6  2  0  0  0
  6 16  1  0  0  0
  6  7  1  0  0  0
 16 17  1  0  0  0
 18 19  1  0  0  0
 18 23  1  0  0  0
 18 16  1  0  0  0
 19 25  1  0  0  0
 19 20  1  0  0  0
 25 26  1  0  0  0
 25 27  2  0  0  0
 26 28  1  0  0  0
 26 29  1  0  0  0
 20 21  1  0  0  0
 20 24  1  0  0  0
 21 22  2  0  0  0
 22 23  1  0  0  0
 23 24  1  0  0  0
 14 15  2  0  0  0
M  END
> <minimizedAffinity>
-7.03475

$$$$
