CHEMBL3739572


 41 45  0  0  0  0  0  0  0  0999 V2000
  -28.2338   -7.5281   -5.4833 C   0  0  0  0  0  0  0  0  0  0  0  0
  -28.7192   -7.6849   -6.8180 C   0  0  0  0  0  0  0  0  0  0  0  0
  -29.0627   -6.5912   -7.5966 C   0  0  0  0  0  0  0  0  0  0  0  0
  -29.2980   -5.4233   -6.9373 C   0  0  0  0  0  0  0  0  0  0  0  0
  -29.2917   -5.4744   -5.5566 C   0  0  0  0  0  0  0  0  0  0  0  0
  -30.0194   -4.5567   -4.8545 C   0  0  0  0  0  0  0  0  0  0  0  0
  -29.2411   -3.4933   -4.5687 C   0  0  0  0  0  0  0  0  0  0  0  0
  -28.0379   -3.8409   -3.9618 C   0  0  0  0  0  0  0  0  0  0  0  0
  -27.6593   -5.2569   -3.9670 C   0  0  0  0  0  0  0  0  0  0  0  0
  -28.3183   -6.1914   -4.9059 C   0  0  0  0  0  0  0  0  0  0  0  0
  -26.9096   -8.9109   -3.8459 N   0  0  0  0  0  0  0  0  0  0  0  0
  -27.6934   -8.8343   -4.9750 C   0  0  0  0  0  0  0  0  0  0  0  0
  -28.0098   -9.8298   -5.6318 O   0  0  0  0  0  0  0  0  0  0  0  0
  -26.7892   -8.0838   -3.2814 H   0  0  0  0  0  0  0  0  0  0  0  0
  -22.6246  -11.1514   -2.8565 C   0  0  0  0  0  0  0  0  0  0  0  0
  -24.1206  -11.2207   -2.9434 C   0  0  0  0  0  0  0  0  0  0  0  0
  -24.7925  -12.4090   -2.6445 C   0  0  0  0  0  0  0  0  0  0  0  0
  -26.1723  -12.4599   -2.7345 C   0  0  0  0  0  0  0  0  0  0  0  0
  -26.8907  -11.3221   -3.1249 C   0  0  0  0  0  0  0  0  0  0  0  0
  -26.2471  -10.1060   -3.4196 C   0  0  0  0  0  0  0  0  0  0  0  0
  -24.8516  -10.0751   -3.3158 C   0  0  0  0  0  0  0  0  0  0  0  0
  -29.8820   -2.3868   -5.0323 O   0  0  0  0  0  0  0  0  0  0  0  0
  -29.3495   -1.5233   -5.9370 C   0  0  0  0  0  0  0  0  0  0  0  0
  -29.4776   -0.1646   -5.6854 C   0  0  0  0  0  0  0  0  0  0  0  0
  -28.7295    0.6562   -6.4844 C   0  0  0  0  0  0  0  0  0  0  0  0
  -27.9155    0.1804   -7.4363 N   0  0  0  0  0  0  0  0  0  0  0  0
  -27.8356   -1.1685   -7.5643 C   0  0  0  0  0  0  0  0  0  0  0  0
  -28.5289   -2.0432   -6.8397 N   0  0  0  0  0  0  0  0  0  0  0  0
  -26.9504   -1.6409   -8.4945 N   0  0  0  0  0  0  0  0  0  0  0  0
  -26.3208   -2.3140   -8.0924 H   0  0  0  0  0  0  0  0  0  0  0  0
  -26.9629   -1.5585   -9.9043 C   0  0  0  0  0  0  0  0  0  0  0  0
  -28.2049   -1.5513  -10.5456 C   0  0  0  0  0  0  0  0  0  0  0  0
  -28.2980   -1.5192  -11.9355 C   0  0  0  0  0  0  0  0  0  0  0  0
  -27.1434   -1.5107  -12.7162 C   0  0  0  0  0  0  0  0  0  0  0  0
  -25.8782   -1.5315  -12.1185 C   0  0  0  0  0  0  0  0  0  0  0  0
  -25.8082   -1.5732  -10.7101 C   0  0  0  0  0  0  0  0  0  0  0  0
  -24.6181   -1.6415  -12.9435 C   0  0  0  0  0  0  0  0  0  0  0  0
  -23.4229   -0.3477  -12.6135 S   0  0  0  0  0  0  0  0  0  0  0  0
  -22.6301   -0.0292  -14.1709 C   0  0  0  0  0  0  0  0  0  0  0  0
  -24.1798    0.8489  -12.2822 O   0  0  0  0  0  0  0  0  0  0  0  0
  -22.4164   -0.8316  -11.6866 O   0  0  0  0  0  0  0  0  0  0  0  0
 15 16  1  0  0  0
 16 17  1  0  0  0
 16 21  2  0  0  0
 17 18  2  0  0  0
 18 19  1  0  0  0
 19 20  2  0  0  0
 20 11  1  0  0  0
 20 21  1  0  0  0
 11 12  1  0  0  0
 11 14  1  0  0  0
 12 13  2  0  0  0
 12  1  1  0  0  0
  1  2  1  0  0  0
  1 10  2  0  0  0
  2  3  2  0  0  0
  3  4  1  0  0  0
  4  5  2  0  0  0
  5  6  1  0  0  0
  5 10  1  0  0  0
  6  7  2  0  0  0
  7 22  1  0  0  0
  7  8  1  0  0  0
 22 23  1  0  0  0
 23 24  1  0  0  0
 23 28  2  0  0  0
 24 25  2  0  0  0
 25 26  1  0  0  0
 26 27  2  0  0  0
 27 29  1  0  0  0
 27 28  1  0  0  0
 29 31  1  0  0  0
 29 30  1  0  0  0
 31 32  1  0  0  0
 31 36  2  0  0  0
 32 33  2  0  0  0
 33 34  1  0  0  0
 34 35  2  0  0  0
 35 37  1  0  0  0
 35 36  1  0  0  0
 37 38  1  0  0  0
 38 39  1  0  0  0
 38 40  2  0  0  0
 38 41  2  0  0  0
  8  9  2  0  0  0
  9 10  1  0  0  0
M  END
> <minimizedAffinity>
-9.83730

$$$$
