CHEMBL597597


 27 30  0  0  0  0  0  0  0  0999 V2000
  -27.7458   -8.7005   -9.4030 O   0  0  0  0  0  0  0  0  0  0  0  0
  -28.1746   -8.5468   -8.2604 C   0  0  0  0  0  0  0  0  0  0  0  0
  -29.4826   -7.8432   -7.9881 C   0  0  0  0  0  0  0  0  0  0  0  0
  -29.2580   -6.6222   -7.1726 C   0  0  0  0  0  0  0  0  0  0  0  0
  -29.4310   -5.3512   -7.6724 C   0  0  0  0  0  0  0  0  0  0  0  0
  -29.1753   -4.2343   -6.9723 N   0  0  0  0  0  0  0  0  0  0  0  0
  -28.7739   -4.3939   -5.7048 C   0  0  0  0  0  0  0  0  0  0  0  0
  -28.6050   -5.6004   -5.1304 N   0  0  0  0  0  0  0  0  0  0  0  0
  -28.8155   -6.7086   -5.8680 C   0  0  0  0  0  0  0  0  0  0  0  0
  -28.5243   -7.9931   -5.2137 C   0  0  0  0  0  0  0  0  0  0  0  0
  -28.8581   -8.1883   -3.8719 C   0  0  0  0  0  0  0  0  0  0  0  0
  -28.6274   -9.3241   -3.1650 N   0  0  0  0  0  0  0  0  0  0  0  0
  -27.9669  -10.3093   -3.7980 C   0  0  0  0  0  0  0  0  0  0  0  0
  -27.5392  -10.2174   -5.1077 C   0  0  0  0  0  0  0  0  0  0  0  0
  -27.8668   -9.0719   -5.8394 C   0  0  0  0  0  0  0  0  0  0  0  0
  -27.5022   -9.1011   -7.2006 N   0  0  0  0  0  0  0  0  0  0  0  0
  -26.7602   -9.7288   -7.4920 H   0  0  0  0  0  0  0  0  0  0  0  0
  -28.4849   -3.2364   -4.9946 N   0  0  0  0  0  0  0  0  0  0  0  0
  -27.9220   -3.4303   -4.1807 H   0  0  0  0  0  0  0  0  0  0  0  0
  -28.5733   -1.9051   -5.4144 C   0  0  0  0  0  0  0  0  0  0  0  0
  -29.6326   -1.1036   -4.9702 C   0  0  0  0  0  0  0  0  0  0  0  0
  -29.8043    0.1923   -5.4675 C   0  0  0  0  0  0  0  0  0  0  0  0
  -28.9025    0.6958   -6.4003 C   0  0  0  0  0  0  0  0  0  0  0  0
  -29.0477    1.9381   -6.9393 O   0  0  0  0  0  0  0  0  0  0  0  0
  -27.8276   -0.0664   -6.8263 C   0  0  0  0  0  0  0  0  0  0  0  0
  -27.6724   -1.3639   -6.3415 C   0  0  0  0  0  0  0  0  0  0  0  0
  -29.9191    2.2817   -6.6853 H   0  0  0  0  0  0  0  0  0  0  0  0
  1  2  2  0  0  0
  2  3  1  0  0  0
  2 16  1  0  0  0
  3  4  1  0  0  0
  4  5  1  0  0  0
  4  9  2  0  0  0
  5  6  2  0  0  0
  6  7  1  0  0  0
  7 18  1  0  0  0
  7  8  2  0  0  0
 18 20  1  0  0  0
 18 19  1  0  0  0
 20 21  1  0  0  0
 20 26  2  0  0  0
 21 22  2  0  0  0
 22 23  1  0  0  0
 23 24  1  0  0  0
 23 25  2  0  0  0
 24 27  1  0  0  0
 25 26  1  0  0  0
  8  9  1  0  0  0
  9 10  1  0  0  0
 10 11  1  0  0  0
 10 15  2  0  0  0
 11 12  2  0  0  0
 12 13  1  0  0  0
 13 14  2  0  0  0
 14 15  1  0  0  0
 15 16  1  0  0  0
 16 17  1  0  0  0
M  END
> <minimizedAffinity>
-8.88144

$$$$
