CHEMBL225335


 34 38  0  0  0  0  0  0  0  0999 V2000
  -31.7779   -9.5786   -7.0144 C   0  0  0  0  0  0  0  0  0  0  0  0
  -32.4396   -9.4872   -8.2164 N   0  0  0  0  0  0  0  0  0  0  0  0
  -31.8135  -10.4728   -8.9089 N   0  0  0  0  0  0  0  0  0  0  0  0
  -31.1553  -11.3461   -8.0706 C   0  0  0  0  0  0  0  0  0  0  0  0
  -31.7381  -11.0071   -6.8283 C   0  0  0  0  0  0  0  0  0  0  0  0
  -31.2136  -11.9367   -5.7899 C   0  0  0  0  0  0  0  0  0  0  0  0
  -29.7944  -11.9108   -6.3068 C   0  0  0  0  0  0  0  0  0  0  0  0
  -28.7085  -11.7939   -5.4663 C   0  0  0  0  0  0  0  0  0  0  0  0
  -27.5264  -11.3524   -6.0249 C   0  0  0  0  0  0  0  0  0  0  0  0
  -27.3956  -11.1235   -7.4198 C   0  0  0  0  0  0  0  0  0  0  0  0
  -28.5249  -11.2536   -8.2800 C   0  0  0  0  0  0  0  0  0  0  0  0
  -29.7379  -11.6379   -7.7130 C   0  0  0  0  0  0  0  0  0  0  0  0
  -32.1727  -10.6615   -9.8354 H   0  0  0  0  0  0  0  0  0  0  0  0
  -29.1618   -6.7774   -7.2169 C   0  0  0  0  0  0  0  0  0  0  0  0
  -30.0336   -7.6761   -7.8278 C   0  0  0  0  0  0  0  0  0  0  0  0
  -30.5718   -8.6292   -6.8879 C   0  0  0  0  0  0  0  0  0  0  0  0
  -29.9620   -8.4725   -5.6503 C   0  0  0  0  0  0  0  0  0  0  0  0
  -28.8457   -7.2064   -5.5856 S   0  0  0  0  0  0  0  0  0  0  0  0
  -28.3062   -4.4463   -8.0315 C   0  0  0  0  0  0  0  0  0  0  0  0
  -28.5495   -5.5763   -7.7050 C   0  0  0  0  0  0  0  0  0  0  0  0
  -28.2331   -2.9932   -8.2546 C   0  0  0  0  0  0  0  0  0  0  0  0
  -27.8148   -2.4089   -7.0254 O   0  0  0  0  0  0  0  0  0  0  0  0
  -28.8794   -1.8526   -6.2505 C   0  0  0  0  0  0  0  0  0  0  0  0
  -28.5451   -2.1270   -4.7913 C   0  0  0  0  0  0  0  0  0  0  0  0
  -28.3211   -4.0770   -3.4808 C   0  0  0  0  0  0  0  0  0  0  0  0
  -27.8578   -3.3675   -4.6436 O   0  0  0  0  0  0  0  0  0  0  0  0
  -26.0286  -10.6385   -7.8999 C   0  0  0  0  0  0  0  0  0  0  0  0
  -24.9145  -11.1657   -7.0735 N   0  0  0  0  0  0  0  0  0  0  0  0
  -23.9229  -11.8758   -7.9026 C   0  0  0  0  0  0  0  0  0  0  0  0
  -22.7134  -12.3856   -7.0897 C   0  0  0  0  0  0  0  0  0  0  0  0
  -22.0111  -11.3502   -6.3115 N   0  0  0  0  0  0  0  0  0  0  0  0
  -21.2266  -10.4680   -7.1712 C   0  0  0  0  0  0  0  0  0  0  0  0
  -22.9995  -10.6030   -5.5090 C   0  0  0  0  0  0  0  0  0  0  0  0
  -24.2579  -10.1100   -6.2808 C   0  0  0  0  0  0  0  0  0  0  0  0
 25 26  1  0  0  0
 26 24  1  0  0  0
 24 23  1  0  0  0
 23 22  1  0  0  0
 22 21  1  0  0  0
 21 19  1  0  0  0
 19 20  3  0  0  0
 20 14  1  0  0  0
 14 15  2  0  0  0
 14 18  1  0  0  0
 15 16  1  0  0  0
 16  1  1  0  0  0
 16 17  2  0  0  0
  1  2  2  0  0  0
  1  5  1  0  0  0
  2  3  1  0  0  0
  3  4  1  0  0  0
  3 13  1  0  0  0
  4  5  2  0  0  0
  4 12  1  0  0  0
  5  6  1  0  0  0
  6  7  1  0  0  0
  7  8  1  0  0  0
  7 12  2  0  0  0
  8  9  2  0  0  0
  9 10  1  0  0  0
 10 27  1  0  0  0
 10 11  2  0  0  0
 27 28  1  0  0  0
 28 29  1  0  0  0
 28 34  1  0  0  0
 29 30  1  0  0  0
 30 31  1  0  0  0
 31 32  1  0  0  0
 31 33  1  0  0  0
 33 34  1  0  0  0
 11 12  1  0  0  0
 17 18  1  0  0  0
M  END
> <minimizedAffinity>
-7.26623

$$$$
