CHEMBL4436907


 36 39  0  0  0  0  0  0  0  0999 V2000
  -24.3766   -1.1765  -12.9780 C   0  0  0  0  0  0  0  0  0  0  0  0
  -25.6638   -1.4970  -13.4124 C   0  0  0  0  0  0  0  0  0  0  0  0
  -26.7034   -1.7178  -12.5017 C   0  0  0  0  0  0  0  0  0  0  0  0
  -26.4791   -1.6018  -11.1221 C   0  0  0  0  0  0  0  0  0  0  0  0
  -25.1836   -1.3113  -10.6866 C   0  0  0  0  0  0  0  0  0  0  0  0
  -24.1415   -1.1021  -11.6016 C   0  0  0  0  0  0  0  0  0  0  0  0
  -22.1045    0.6124  -12.6433 O   0  0  0  0  0  0  0  0  0  0  0  0
  -22.2695   -0.0357  -13.6695 C   0  0  0  0  0  0  0  0  0  0  0  0
  -21.4800    0.0924  -14.8057 N   0  0  0  0  0  0  0  0  0  0  0  0
  -23.2911   -0.9531  -13.8567 N   0  0  0  0  0  0  0  0  0  0  0  0
  -21.8100   -0.3641  -15.6423 H   0  0  0  0  0  0  0  0  0  0  0  0
  -23.2199   -1.5698  -14.6515 H   0  0  0  0  0  0  0  0  0  0  0  0
  -20.4456    1.0465  -14.9766 C   0  0  0  0  0  0  0  0  0  0  0  0
  -20.6741    2.4232  -15.0664 C   0  0  0  0  0  0  0  0  0  0  0  0
  -19.6330    3.3074  -15.3631 C   0  0  0  0  0  0  0  0  0  0  0  0
  -18.3461    2.8196  -15.5476 C   0  0  0  0  0  0  0  0  0  0  0  0
  -17.0762    3.8998  -15.9664 Cl  0  0  0  0  0  0  0  0  0  0  0  0
  -18.0882    1.4590  -15.4018 C   0  0  0  0  0  0  0  0  0  0  0  0
  -19.1339    0.5748  -15.1067 C   0  0  0  0  0  0  0  0  0  0  0  0
  -27.5718   -1.6928  -10.0956 C   0  0  0  0  0  0  0  0  0  0  0  0
  -28.5334   -0.9326  -10.1512 O   0  0  0  0  0  0  0  0  0  0  0  0
  -27.4337   -2.7150   -9.1752 N   0  0  0  0  0  0  0  0  0  0  0  0
  -26.6315   -3.3286   -9.3112 H   0  0  0  0  0  0  0  0  0  0  0  0
  -28.5478   -3.3689   -8.7020 N   0  0  0  0  0  0  0  0  0  0  0  0
  -28.7745   -3.1118   -7.4498 C   0  0  0  0  0  0  0  0  0  0  0  0
  -28.3041   -1.8778   -6.6597 C   0  0  0  0  0  0  0  0  0  0  0  0
  -28.3150   -0.7314   -7.0473 O   0  0  0  0  0  0  0  0  0  0  0  0
  -27.7830   -2.3888   -5.4986 N   0  0  0  0  0  0  0  0  0  0  0  0
  -28.0533   -3.7507   -5.4039 C   0  0  0  0  0  0  0  0  0  0  0  0
  -27.5553   -4.6216   -4.4635 C   0  0  0  0  0  0  0  0  0  0  0  0
  -27.8848   -5.9731   -4.6125 C   0  0  0  0  0  0  0  0  0  0  0  0
  -28.6995   -6.4124   -5.6795 C   0  0  0  0  0  0  0  0  0  0  0  0
  -29.0592   -8.0894   -5.8214 Cl  0  0  0  0  0  0  0  0  0  0  0  0
  -29.1702   -5.5262   -6.6473 C   0  0  0  0  0  0  0  0  0  0  0  0
  -28.8332   -4.2001   -6.4764 C   0  0  0  0  0  0  0  0  0  0  0  0
  -27.2634   -1.8293   -4.8382 H   0  0  0  0  0  0  0  0  0  0  0  0
  7  8  2  0  0  0
  8  9  1  0  0  0
  8 10  1  0  0  0
  9 13  1  0  0  0
  9 11  1  0  0  0
 13 14  1  0  0  0
 13 19  2  0  0  0
 14 15  2  0  0  0
 15 16  1  0  0  0
 16 17  1  0  0  0
 16 18  2  0  0  0
 18 19  1  0  0  0
 10  1  1  0  0  0
 10 12  1  0  0  0
  1  2  1  0  0  0
  1  6  2  0  0  0
  2  3  2  0  0  0
  3  4  1  0  0  0
  4 20  1  0  0  0
  4  5  2  0  0  0
 20 21  2  0  0  0
 20 22  1  0  0  0
 22 24  1  0  0  0
 22 23  1  0  0  0
 24 25  2  0  0  0
 25 26  1  0  0  0
 25 35  1  0  0  0
 26 27  2  0  0  0
 26 28  1  0  0  0
 28 29  1  0  0  0
 28 36  1  0  0  0
 29 30  1  0  0  0
 29 35  2  0  0  0
 30 31  2  0  0  0
 31 32  1  0  0  0
 32 33  1  0  0  0
 32 34  2  0  0  0
 34 35  1  0  0  0
  5  6  1  0  0  0
M  END
> <minimizedAffinity>
-11.41605

$$$$
