CHEMBL3310052


 40 43  0  0  0  0  0  0  0  0999 V2000
  -24.9423   -0.9664  -12.8510 C   0  0  0  0  0  0  0  0  0  0  0  0
  -26.2575   -1.3543  -13.0973 C   0  0  0  0  0  0  0  0  0  0  0  0
  -27.0223   -1.9729  -12.1097 C   0  0  0  0  0  0  0  0  0  0  0  0
  -26.4800   -2.2945  -10.8632 C   0  0  0  0  0  0  0  0  0  0  0  0
  -25.1442   -1.9504  -10.6271 C   0  0  0  0  0  0  0  0  0  0  0  0
  -24.3743   -1.3070  -11.6185 C   0  0  0  0  0  0  0  0  0  0  0  0
  -22.1564   -0.2432  -12.6688 O   0  0  0  0  0  0  0  0  0  0  0  0
  -22.8369    0.0830  -13.6365 C   0  0  0  0  0  0  0  0  0  0  0  0
  -24.1870   -0.2075  -13.7817 N   0  0  0  0  0  0  0  0  0  0  0  0
  -22.3223    0.7699  -14.7221 N   0  0  0  0  0  0  0  0  0  0  0  0
  -24.5791   -0.0966  -14.7053 H   0  0  0  0  0  0  0  0  0  0  0  0
  -22.9721    1.3140  -15.2744 H   0  0  0  0  0  0  0  0  0  0  0  0
  -20.9438    1.0803  -14.8990 C   0  0  0  0  0  0  0  0  0  0  0  0
  -20.0065    0.1270  -15.3131 C   0  0  0  0  0  0  0  0  0  0  0  0
  -18.6481    0.4471  -15.4330 C   0  0  0  0  0  0  0  0  0  0  0  0
  -18.1979    1.7415  -15.1568 C   0  0  0  0  0  0  0  0  0  0  0  0
  -19.1348    2.7136  -14.7828 C   0  0  0  0  0  0  0  0  0  0  0  0
  -20.4943    2.3883  -14.6600 C   0  0  0  0  0  0  0  0  0  0  0  0
  -21.5893    3.6307  -14.1637 Cl  0  0  0  0  0  0  0  0  0  0  0  0
  -16.7295    2.0825  -15.2485 C   0  0  0  0  0  0  0  0  0  0  0  0
  -16.0004    1.6585  -14.1839 F   0  0  0  0  0  0  0  0  0  0  0  0
  -16.1408    1.5398  -16.3534 F   0  0  0  0  0  0  0  0  0  0  0  0
  -16.5168    3.4266  -15.3362 F   0  0  0  0  0  0  0  0  0  0  0  0
  -27.2506   -2.9522   -9.8701 N   0  0  0  0  0  0  0  0  0  0  0  0
  -26.9502   -3.9204   -9.7362 H   0  0  0  0  0  0  0  0  0  0  0  0
  -27.7403   -2.3532   -8.6720 C   0  0  0  0  0  0  0  0  0  0  0  0
  -27.5942   -0.9600   -8.5213 C   0  0  0  0  0  0  0  0  0  0  0  0
  -27.9537   -0.3358   -7.3414 C   0  0  0  0  0  0  0  0  0  0  0  0
  -28.5617   -1.1004   -6.3482 C   0  0  0  0  0  0  0  0  0  0  0  0
  -28.8855   -2.4472   -6.4868 C   0  0  0  0  0  0  0  0  0  0  0  0
  -29.6209   -3.0846   -5.5525 N   0  0  0  0  0  0  0  0  0  0  0  0
  -29.8407   -4.3916   -5.6972 C   0  0  0  0  0  0  0  0  0  0  0  0
  -29.3382   -5.1511   -6.6650 N   0  0  0  0  0  0  0  0  0  0  0  0
  -28.6402   -4.4779   -7.5958 C   0  0  0  0  0  0  0  0  0  0  0  0
  -28.0775   -5.3183   -8.5090 O   0  0  0  0  0  0  0  0  0  0  0  0
  -28.4091   -3.0960   -7.6366 C   0  0  0  0  0  0  0  0  0  0  0  0
  -28.2686   -6.1738   -8.0759 H   0  0  0  0  0  0  0  0  0  0  0  0
  -28.7917   -0.4617   -5.0693 N   0  0  0  0  0  0  0  0  0  0  0  0
  -29.7554    0.3110   -4.9925 O   0  0  0  0  0  0  0  0  0  0  0  0
  -27.9540   -0.6568   -4.1777 O   0  0  0  0  0  0  0  0  0  0  0  0
  7  8  2  0  0  0
  8  9  1  0  0  0
  8 10  1  0  0  0
  9  1  1  0  0  0
  9 11  1  0  0  0
  1  2  1  0  0  0
  1  6  2  0  0  0
  2  3  2  0  0  0
  3  4  1  0  0  0
  4 24  1  0  0  0
  4  5  2  0  0  0
 24 26  1  0  0  0
 24 25  1  0  0  0
 26 27  1  0  0  0
 26 36  2  0  0  0
 27 28  2  0  0  0
 28 29  1  0  0  0
 29 38  1  0  0  0
 29 30  2  0  0  0
 38 39  2  0  0  0
 38 40  1  0  0  0
 30 31  1  0  0  0
 30 36  1  0  0  0
 31 32  2  0  0  0
 32 33  1  0  0  0
 33 34  2  0  0  0
 34 35  1  0  0  0
 34 36  1  0  0  0
 35 37  1  0  0  0
  5  6  1  0  0  0
 10 13  1  0  0  0
 10 12  1  0  0  0
 13 14  1  0  0  0
 13 18  2  0  0  0
 14 15  2  0  0  0
 15 16  1  0  0  0
 16 20  1  0  0  0
 16 17  2  0  0  0
 20 21  1  0  0  0
 20 22  1  0  0  0
 20 23  1  0  0  0
 17 18  1  0  0  0
 18 19  1  0  0  0
M  CHG 1  38   1
M  CHG 1  40  -1
M  END
> <minimizedAffinity>
-10.46811

$$$$
