CHEMBL3671570


 40 43  0  0  0  0  0  0  0  0999 V2000
  -13.1060   -2.9578  -16.0777 C   0  0  0  0  0  0  0  0  0  0  0  0
  -13.6991   -1.6946  -16.0951 C   0  0  0  0  0  0  0  0  0  0  0  0
  -13.3681   -0.7256  -15.1200 C   0  0  0  0  0  0  0  0  0  0  0  0
  -13.9789    0.5381  -15.0137 C   0  0  0  0  0  0  0  0  0  0  0  0
  -13.6061    1.4450  -14.0978 N   0  0  0  0  0  0  0  0  0  0  0  0
  -12.6452    1.0682  -13.2516 C   0  0  0  0  0  0  0  0  0  0  0  0
  -12.0099   -0.1096  -13.2466 N   0  0  0  0  0  0  0  0  0  0  0  0
  -12.3684   -1.0005  -14.1798 C   0  0  0  0  0  0  0  0  0  0  0  0
  -11.7261   -2.2364  -14.2362 C   0  0  0  0  0  0  0  0  0  0  0  0
  -12.0547   -3.2162  -15.1888 C   0  0  0  0  0  0  0  0  0  0  0  0
  -13.2150   -4.0265  -18.2424 C   0  0  0  0  0  0  0  0  0  0  0  0
  -12.3229   -3.3657  -18.7565 O   0  0  0  0  0  0  0  0  0  0  0  0
  -13.6615   -3.9278  -16.9354 N   0  0  0  0  0  0  0  0  0  0  0  0
  -13.9475   -4.8052  -16.5199 H   0  0  0  0  0  0  0  0  0  0  0  0
  -14.7324   -4.8027  -20.0008 C   0  0  0  0  0  0  0  0  0  0  0  0
  -13.9193   -5.1038  -18.9804 C   0  0  0  0  0  0  0  0  0  0  0  0
  -15.0652    0.8526  -15.8704 N   0  0  0  0  0  0  0  0  0  0  0  0
  -15.1691    0.1308  -16.5857 H   0  0  0  0  0  0  0  0  0  0  0  0
  -16.2875    1.4700  -15.5483 C   0  0  0  0  0  0  0  0  0  0  0  0
  -16.6079    2.7554  -16.0000 C   0  0  0  0  0  0  0  0  0  0  0  0
  -17.9076    3.2551  -15.8733 C   0  0  0  0  0  0  0  0  0  0  0  0
  -18.8999    2.4714  -15.2859 C   0  0  0  0  0  0  0  0  0  0  0  0
  -20.6829    3.0965  -15.2433 Br  0  0  0  0  0  0  0  0  0  0  0  0
  -18.5953    1.2134  -14.7774 C   0  0  0  0  0  0  0  0  0  0  0  0
  -17.3006    0.7253  -14.9216 C   0  0  0  0  0  0  0  0  0  0  0  0
  -17.0220   -0.5098  -14.4712 F   0  0  0  0  0  0  0  0  0  0  0  0
  -11.2452   -4.3323  -15.1628 O   0  0  0  0  0  0  0  0  0  0  0  0
  -11.3885   -5.1763  -14.0108 C   0  0  0  0  0  0  0  0  0  0  0  0
  -12.0033   -6.5339  -14.3770 C   0  0  0  0  0  0  0  0  0  0  0  0
  -13.3449   -6.7018  -13.8239 N   0  0  0  0  0  0  0  0  0  0  0  0
  -14.4544   -6.7134  -14.6404 C   0  0  0  0  0  0  0  0  0  0  0  0
  -14.3698   -6.6942  -15.8676 O   0  0  0  0  0  0  0  0  0  0  0  0
  -13.5093   -6.6089  -12.8257 H   0  0  0  0  0  0  0  0  0  0  0  0
  -15.8144   -6.8149  -13.9412 C   0  0  0  0  0  0  0  0  0  0  0  0
  -16.2877   -5.5456  -13.3143 N   0  0  0  0  0  0  0  0  0  0  0  0
  -16.0422   -5.5487  -11.8587 C   0  0  0  0  0  0  0  0  0  0  0  0
  -16.4464   -4.2165  -11.2178 C   0  0  0  0  0  0  0  0  0  0  0  0
  -15.6946   -3.0509  -11.8471 C   0  0  0  0  0  0  0  0  0  0  0  0
  -15.8854   -3.0670  -13.3572 C   0  0  0  0  0  0  0  0  0  0  0  0
  -15.5325   -4.4345  -13.9443 C   0  0  0  0  0  0  0  0  0  0  0  0
 15 16  2  0  0  0
 16 11  1  0  0  0
 11 12  2  0  0  0
 11 13  1  0  0  0
 13  1  1  0  0  0
 13 14  1  0  0  0
  1  2  1  0  0  0
  1 10  2  0  0  0
  2  3  2  0  0  0
  3  4  1  0  0  0
  3  8  1  0  0  0
  4 17  1  0  0  0
  4  5  2  0  0  0
 17 19  1  0  0  0
 17 18  1  0  0  0
 19 20  1  0  0  0
 19 25  2  0  0  0
 20 21  2  0  0  0
 21 22  1  0  0  0
 22 23  1  0  0  0
 22 24  2  0  0  0
 24 25  1  0  0  0
 25 26  1  0  0  0
  5  6  1  0  0  0
  6  7  2  0  0  0
  7  8  1  0  0  0
  8  9  2  0  0  0
  9 10  1  0  0  0
 10 27  1  0  0  0
 27 28  1  0  0  0
 28 29  1  0  0  0
 29 30  1  0  0  0
 30 31  1  0  0  0
 30 33  1  0  0  0
 31 32  2  0  0  0
 31 34  1  0  0  0
 34 35  1  0  0  0
 35 36  1  0  0  0
 35 40  1  0  0  0
 36 37  1  0  0  0
 37 38  1  0  0  0
 38 39  1  0  0  0
 39 40  1  0  0  0
M  END
> <minimizedAffinity>
-7.49062

$$$$
