CHEMBL1992723


 15 17  0  0  0  0  0  0  0  0999 V2000
  -29.8921   -3.4564   -4.9047 C   0  0  0  0  0  0  0  0  0  0  0  0
  -30.6681   -3.7251   -3.8326 C   0  0  0  0  0  0  0  0  0  0  0  0
  -31.2968   -5.0335   -3.7119 C   0  0  0  0  0  0  0  0  0  0  0  0
  -31.1303   -5.9856   -4.6493 C   0  0  0  0  0  0  0  0  0  0  0  0
  -30.3217   -5.7209   -5.7860 C   0  0  0  0  0  0  0  0  0  0  0  0
  -30.0158   -6.4766   -6.8215 N   0  0  0  0  0  0  0  0  0  0  0  0
  -29.1952   -5.7065   -7.6024 C   0  0  0  0  0  0  0  0  0  0  0  0
  -28.9972   -4.4678   -7.0405 C   0  0  0  0  0  0  0  0  0  0  0  0
  -29.7249   -4.4644   -5.8719 N   0  0  0  0  0  0  0  0  0  0  0  0
  -28.0525    0.3904   -5.1431 C   0  0  0  0  0  0  0  0  0  0  0  0
  -29.4209    0.2562   -5.3765 C   0  0  0  0  0  0  0  0  0  0  0  0
  -30.0191   -1.0045   -5.3251 C   0  0  0  0  0  0  0  0  0  0  0  0
  -29.2504   -2.1392   -5.0358 C   0  0  0  0  0  0  0  0  0  0  0  0
  -27.8717   -2.0004   -4.8307 C   0  0  0  0  0  0  0  0  0  0  0  0
  -27.2765   -0.7378   -4.8770 C   0  0  0  0  0  0  0  0  0  0  0  0
 10 11  1  0  0  0
 10 15  2  0  0  0
 11 12  2  0  0  0
 12 13  1  0  0  0
 13  1  1  0  0  0
 13 14  2  0  0  0
  1  2  2  0  0  0
  1  9  1  0  0  0
  2  3  1  0  0  0
  3  4  2  0  0  0
  4  5  1  0  0  0
  5  6  2  0  0  0
  5  9  1  0  0  0
  6  7  1  0  0  0
  7  8  2  0  0  0
  8  9  1  0  0  0
 14 15  1  0  0  0
M  END
> <minimizedAffinity>
-6.99313

$$$$
