CHEMBL3644021


 31 32  0  0  0  0  0  0  0  0999 V2000
  -28.8750   -8.7715   -6.1224 C   0  0  0  0  0  0  0  0  0  0  0  0
  -29.6844   -7.6922   -6.2272 N   0  0  0  0  0  0  0  0  0  0  0  0
  -29.9383   -7.0051   -5.1037 C   0  0  0  0  0  0  0  0  0  0  0  0
  -29.4414   -7.3594   -3.9089 N   0  0  0  0  0  0  0  0  0  0  0  0
  -28.5952   -8.3951   -3.8594 C   0  0  0  0  0  0  0  0  0  0  0  0
  -28.2383   -9.1322   -4.9589 C   0  0  0  0  0  0  0  0  0  0  0  0
  -27.2063  -10.1826   -4.8066 C   0  0  0  0  0  0  0  0  0  0  0  0
  -27.5908  -11.4488   -5.1145 F   0  0  0  0  0  0  0  0  0  0  0  0
  -26.1214   -9.9293   -5.5974 F   0  0  0  0  0  0  0  0  0  0  0  0
  -26.7127  -10.2409   -3.5367 F   0  0  0  0  0  0  0  0  0  0  0  0
  -30.7063   -5.8430   -5.1853 N   0  0  0  0  0  0  0  0  0  0  0  0
  -31.6851   -5.9964   -5.0081 H   0  0  0  0  0  0  0  0  0  0  0  0
  -30.2537   -4.5356   -5.4187 C   0  0  0  0  0  0  0  0  0  0  0  0
  -29.6608   -4.1778   -6.6359 C   0  0  0  0  0  0  0  0  0  0  0  0
  -29.1000   -2.9031   -6.8171 C   0  0  0  0  0  0  0  0  0  0  0  0
  -29.1304   -1.9815   -5.7667 C   0  0  0  0  0  0  0  0  0  0  0  0
  -29.7134   -2.3183   -4.5503 C   0  0  0  0  0  0  0  0  0  0  0  0
  -30.2680   -3.5838   -4.3877 C   0  0  0  0  0  0  0  0  0  0  0  0
  -28.3442   -0.3930   -5.9170 S   0  0  0  0  0  0  0  0  0  0  0  0
  -27.6524   -0.1613   -4.6583 O   0  0  0  0  0  0  0  0  0  0  0  0
  -27.5894   -0.3983   -7.1569 O   0  0  0  0  0  0  0  0  0  0  0  0
  -29.7140    0.7635   -6.0693 C   0  0  0  0  0  0  0  0  0  0  0  0
  -30.1223    1.2578   -4.8655 F   0  0  0  0  0  0  0  0  0  0  0  0
  -29.4167    1.8496   -6.8420 F   0  0  0  0  0  0  0  0  0  0  0  0
  -28.6185   -9.5218   -7.2516 O   0  0  0  0  0  0  0  0  0  0  0  0
  -28.7090   -8.8376   -8.5184 C   0  0  0  0  0  0  0  0  0  0  0  0
  -29.6610   -9.6139   -9.4332 C   0  0  0  0  0  0  0  0  0  0  0  0
  -27.1643   -9.6858  -10.3716 C   0  0  0  0  0  0  0  0  0  0  0  0
  -27.2949   -8.7909   -9.1469 C   0  0  0  0  0  0  0  0  0  0  0  0
  -26.9481   -7.4586   -9.5358 O   0  0  0  0  0  0  0  0  0  0  0  0
  -27.6707   -7.1313  -10.1030 H   0  0  0  0  0  0  0  0  0  0  0  0
 28 29  1  0  0  0
 29 30  1  0  0  0
 29 26  1  0  0  0
 30 31  1  0  0  0
 26 27  1  0  0  0
 26 25  1  0  0  0
 25  1  1  0  0  0
  1  2  1  0  0  0
  1  6  2  0  0  0
  2  3  2  0  0  0
  3 11  1  0  0  0
  3  4  1  0  0  0
 11 13  1  0  0  0
 11 12  1  0  0  0
 13 14  1  0  0  0
 13 18  2  0  0  0
 14 15  2  0  0  0
 15 16  1  0  0  0
 16 19  1  0  0  0
 16 17  2  0  0  0
 19 20  2  0  0  0
 19 21  2  0  0  0
 19 22  1  0  0  0
 22 23  1  0  0  0
 22 24  1  0  0  0
 17 18  1  0  0  0
  4  5  2  0  0  0
  5  6  1  0  0  0
  6  7  1  0  0  0
  7  8  1  0  0  0
  7  9  1  0  0  0
  7 10  1  0  0  0
M  END
> <minimizedAffinity>
-7.86677

$$$$
