CHEMBL604912


 29 32  0  0  0  0  0  0  0  0999 V2000
  -30.0372   -7.6065   -6.8059 C   0  0  0  0  0  0  0  0  0  0  0  0
  -29.0862   -7.3538   -7.7883 C   0  0  0  0  0  0  0  0  0  0  0  0
  -28.6151   -6.0499   -7.9911 C   0  0  0  0  0  0  0  0  0  0  0  0
  -29.0306   -4.9776   -7.1777 C   0  0  0  0  0  0  0  0  0  0  0  0
  -29.9658   -5.2624   -6.1590 C   0  0  0  0  0  0  0  0  0  0  0  0
  -30.5043   -6.5497   -6.0265 C   0  0  0  0  0  0  0  0  0  0  0  0
  -30.3991   -4.3318   -5.1951 N   0  0  0  0  0  0  0  0  0  0  0  0
  -29.6458   -3.3632   -4.5919 C   0  0  0  0  0  0  0  0  0  0  0  0
  -30.1349   -2.6878   -3.6810 O   0  0  0  0  0  0  0  0  0  0  0  0
  -28.2003   -3.2073   -4.9953 C   0  0  0  0  0  0  0  0  0  0  0  0
  -28.1048   -2.7818   -6.4156 C   0  0  0  0  0  0  0  0  0  0  0  0
  -27.6738   -1.5313   -6.7952 C   0  0  0  0  0  0  0  0  0  0  0  0
  -27.6267   -1.1191   -8.0740 N   0  0  0  0  0  0  0  0  0  0  0  0
  -28.0123   -1.9996   -9.0090 C   0  0  0  0  0  0  0  0  0  0  0  0
  -28.4370   -3.2386   -8.7204 N   0  0  0  0  0  0  0  0  0  0  0  0
  -28.5046   -3.6204   -7.4301 C   0  0  0  0  0  0  0  0  0  0  0  0
  -31.2760   -4.5052   -4.7167 H   0  0  0  0  0  0  0  0  0  0  0  0
  -31.6673   -9.2703   -7.2649 C   0  0  0  0  0  0  0  0  0  0  0  0
  -30.5682   -8.8232   -6.4825 O   0  0  0  0  0  0  0  0  0  0  0  0
  -27.8988   -1.5601  -10.3253 N   0  0  0  0  0  0  0  0  0  0  0  0
  -28.6197   -0.8820  -10.5169 H   0  0  0  0  0  0  0  0  0  0  0  0
  -26.8390   -1.6618  -11.2349 C   0  0  0  0  0  0  0  0  0  0  0  0
  -27.1222   -1.7101  -12.6089 C   0  0  0  0  0  0  0  0  0  0  0  0
  -26.0938   -1.7436  -13.5574 C   0  0  0  0  0  0  0  0  0  0  0  0
  -24.7624   -1.7461  -13.1470 C   0  0  0  0  0  0  0  0  0  0  0  0
  -24.4758   -1.7187  -11.7899 C   0  0  0  0  0  0  0  0  0  0  0  0
  -23.1926   -1.7327  -11.3281 O   0  0  0  0  0  0  0  0  0  0  0  0
  -25.4949   -1.6761  -10.8471 C   0  0  0  0  0  0  0  0  0  0  0  0
  -22.5987   -1.9109  -12.0732 H   0  0  0  0  0  0  0  0  0  0  0  0
 18 19  1  0  0  0
 19  1  1  0  0  0
  1  2  1  0  0  0
  1  6  2  0  0  0
  2  3  2  0  0  0
  3  4  1  0  0  0
  4  5  2  0  0  0
  4 16  1  0  0  0
  5  6  1  0  0  0
  5  7  1  0  0  0
  7  8  1  0  0  0
  7 17  1  0  0  0
  8  9  2  0  0  0
  8 10  1  0  0  0
 10 11  1  0  0  0
 11 12  1  0  0  0
 11 16  2  0  0  0
 12 13  2  0  0  0
 13 14  1  0  0  0
 14 20  1  0  0  0
 14 15  2  0  0  0
 20 22  1  0  0  0
 20 21  1  0  0  0
 22 23  1  0  0  0
 22 28  2  0  0  0
 23 24  2  0  0  0
 24 25  1  0  0  0
 25 26  2  0  0  0
 26 27  1  0  0  0
 26 28  1  0  0  0
 27 29  1  0  0  0
 15 16  1  0  0  0
M  END
> <minimizedAffinity>
-9.57700

$$$$
