CHEMBL4100979


 38 42  0  0  0  0  0  0  0  0999 V2000
  -29.2224   -4.5865   -5.4283 C   0  0  0  0  0  0  0  0  0  0  0  0
  -30.4265   -5.2985   -5.5477 C   0  0  0  0  0  0  0  0  0  0  0  0
  -30.4714   -6.6985   -5.4440 C   0  0  0  0  0  0  0  0  0  0  0  0
  -29.3084   -7.4157   -5.1839 C   0  0  0  0  0  0  0  0  0  0  0  0
  -28.1096   -6.7353   -4.9891 C   0  0  0  0  0  0  0  0  0  0  0  0
  -28.0736   -5.3372   -5.1003 C   0  0  0  0  0  0  0  0  0  0  0  0
  -27.7648   -4.1830   -8.4739 N   0  0  0  0  0  0  0  0  0  0  0  0
  -27.9119   -2.9296   -8.0164 C   0  0  0  0  0  0  0  0  0  0  0  0
  -27.4742   -1.9066   -8.7437 N   0  0  0  0  0  0  0  0  0  0  0  0
  -27.7494   -0.8411   -7.9901 N   0  0  0  0  0  0  0  0  0  0  0  0
  -28.3743   -1.1304   -6.8082 C   0  0  0  0  0  0  0  0  0  0  0  0
  -28.8017   -0.2715   -5.7928 C   0  0  0  0  0  0  0  0  0  0  0  0
  -29.4227   -0.8510   -4.6940 C   0  0  0  0  0  0  0  0  0  0  0  0
  -29.5844   -2.2334   -4.6182 C   0  0  0  0  0  0  0  0  0  0  0  0
  -29.1224   -3.1205   -5.6285 C   0  0  0  0  0  0  0  0  0  0  0  0
  -28.5095   -2.5242   -6.7749 C   0  0  0  0  0  0  0  0  0  0  0  0
  -27.1771   -4.2654   -9.2964 H   0  0  0  0  0  0  0  0  0  0  0  0
  -27.6080   -4.9307   -7.8083 H   0  0  0  0  0  0  0  0  0  0  0  0
  -27.4786    0.0722   -8.3351 H   0  0  0  0  0  0  0  0  0  0  0  0
  -29.3470   -8.8140   -5.0522 N   0  0  0  0  0  0  0  0  0  0  0  0
  -28.9628   -9.4079   -3.8584 C   0  0  0  0  0  0  0  0  0  0  0  0
  -28.6661   -8.8279   -2.8212 O   0  0  0  0  0  0  0  0  0  0  0  0
  -29.0801   -9.3461   -5.8716 H   0  0  0  0  0  0  0  0  0  0  0  0
  -28.8402  -10.8962   -3.9246 C   0  0  0  0  0  0  0  0  0  0  0  0
  -29.9781  -11.6820   -4.5860 C   0  0  0  0  0  0  0  0  0  0  0  0
  -29.8388  -11.7153   -3.0984 C   0  0  0  0  0  0  0  0  0  0  0  0
  -27.4434  -11.4407   -4.0946 C   0  0  0  0  0  0  0  0  0  0  0  0
  -27.2962  -12.4652   -4.7445 O   0  0  0  0  0  0  0  0  0  0  0  0
  -26.4761  -10.6672   -3.4847 N   0  0  0  0  0  0  0  0  0  0  0  0
  -26.7908   -9.7945   -3.0740 H   0  0  0  0  0  0  0  0  0  0  0  0
  -25.0980  -10.9556   -3.3950 C   0  0  0  0  0  0  0  0  0  0  0  0
  -24.4897  -11.5032   -2.2557 C   0  0  0  0  0  0  0  0  0  0  0  0
  -23.1119  -11.7455   -2.2258 C   0  0  0  0  0  0  0  0  0  0  0  0
  -22.3374  -11.4374   -3.3366 C   0  0  0  0  0  0  0  0  0  0  0  0
  -21.0171  -11.6605   -3.2999 F   0  0  0  0  0  0  0  0  0  0  0  0
  -22.9289  -10.8992   -4.4707 C   0  0  0  0  0  0  0  0  0  0  0  0
  -22.1822  -10.6041   -5.5440 F   0  0  0  0  0  0  0  0  0  0  0  0
  -24.3046  -10.6599   -4.5101 C   0  0  0  0  0  0  0  0  0  0  0  0
  7  8  1  0  0  0
  7 17  1  0  0  0
  7 18  1  0  0  0
  8  9  2  0  0  0
  8 16  1  0  0  0
  9 10  1  0  0  0
 10 11  1  0  0  0
 10 19  1  0  0  0
 11 12  1  0  0  0
 11 16  2  0  0  0
 12 13  2  0  0  0
 13 14  1  0  0  0
 14 15  2  0  0  0
 15  1  1  0  0  0
 15 16  1  0  0  0
  1  2  1  0  0  0
  1  6  2  0  0  0
  2  3  2  0  0  0
  3  4  1  0  0  0
  4 20  1  0  0  0
  4  5  2  0  0  0
 20 21  1  0  0  0
 20 23  1  0  0  0
 21 22  2  0  0  0
 21 24  1  0  0  0
 24 27  1  0  0  0
 24 25  1  0  0  0
 24 26  1  0  0  0
 27 28  2  0  0  0
 27 29  1  0  0  0
 29 31  1  0  0  0
 29 30  1  0  0  0
 31 32  1  0  0  0
 31 38  2  0  0  0
 32 33  2  0  0  0
 33 34  1  0  0  0
 34 35  1  0  0  0
 34 36  2  0  0  0
 36 37  1  0  0  0
 36 38  1  0  0  0
 25 26  1  0  0  0
  5  6  1  0  0  0
M  END
> <minimizedAffinity>
-9.80986

$$$$
