CHEMBL393963


 30 32  0  0  0  0  0  0  0  0999 V2000
  -15.4510    3.5055  -16.7379 C   0  0  0  0  0  0  0  0  0  0  0  0
  -14.9480    2.2766  -16.0817 C   0  0  0  0  0  0  0  0  0  0  0  0
  -13.6909    1.8827  -16.3125 N   0  0  0  0  0  0  0  0  0  0  0  0
  -13.4886    0.7856  -15.5022 O   0  0  0  0  0  0  0  0  0  0  0  0
  -14.6197    0.5119  -14.7954 C   0  0  0  0  0  0  0  0  0  0  0  0
  -15.5964    1.4239  -15.1460 C   0  0  0  0  0  0  0  0  0  0  0  0
  -16.9211    1.4907  -14.5679 C   0  0  0  0  0  0  0  0  0  0  0  0
  -17.1037    1.2273  -13.3827 O   0  0  0  0  0  0  0  0  0  0  0  0
  -17.9454    1.7644  -15.4703 N   0  0  0  0  0  0  0  0  0  0  0  0
  -17.7595    1.5094  -16.4331 H   0  0  0  0  0  0  0  0  0  0  0  0
  -19.2963    1.7971  -15.0558 C   0  0  0  0  0  0  0  0  0  0  0  0
  -19.9259    2.9993  -14.7283 C   0  0  0  0  0  0  0  0  0  0  0  0
  -21.2394    3.0028  -14.2502 C   0  0  0  0  0  0  0  0  0  0  0  0
  -21.9409    1.7996  -14.0626 C   0  0  0  0  0  0  0  0  0  0  0  0
  -21.3063    0.6016  -14.4163 C   0  0  0  0  0  0  0  0  0  0  0  0
  -22.0625   -0.9331  -14.1757 Cl  0  0  0  0  0  0  0  0  0  0  0  0
  -20.0061    0.6016  -14.9458 C   0  0  0  0  0  0  0  0  0  0  0  0
  -23.3293    1.8216  -13.4776 C   0  0  0  0  0  0  0  0  0  0  0  0
  -23.4338    1.0959  -12.3255 F   0  0  0  0  0  0  0  0  0  0  0  0
  -23.7510    3.0738  -13.1507 F   0  0  0  0  0  0  0  0  0  0  0  0
  -24.2694    1.3025  -14.3142 F   0  0  0  0  0  0  0  0  0  0  0  0
  -14.6172   -0.5502  -13.9546 N   0  0  0  0  0  0  0  0  0  0  0  0
  -13.7543   -0.7842  -13.4660 H   0  0  0  0  0  0  0  0  0  0  0  0
  -15.5125   -1.6796  -14.1605 C   0  0  0  0  0  0  0  0  0  0  0  0
  -15.7624   -2.5058  -12.9151 C   0  0  0  0  0  0  0  0  0  0  0  0
  -15.6014   -2.0281  -11.6116 C   0  0  0  0  0  0  0  0  0  0  0  0
  -15.8798   -2.8715  -10.5479 C   0  0  0  0  0  0  0  0  0  0  0  0
  -16.3076   -4.1429  -10.6816 N   0  0  0  0  0  0  0  0  0  0  0  0
  -16.4599   -4.5940  -11.9420 C   0  0  0  0  0  0  0  0  0  0  0  0
  -16.2079   -3.8266  -13.0703 C   0  0  0  0  0  0  0  0  0  0  0  0
  1  2  1  0  0  0
  2  3  2  0  0  0
  2  6  1  0  0  0
  3  4  1  0  0  0
  4  5  1  0  0  0
  5 22  1  0  0  0
  5  6  2  0  0  0
 22 24  1  0  0  0
 22 23  1  0  0  0
 24 25  1  0  0  0
 25 26  1  0  0  0
 25 30  2  0  0  0
 26 27  2  0  0  0
 27 28  1  0  0  0
 28 29  2  0  0  0
 29 30  1  0  0  0
  6  7  1  0  0  0
  7  8  2  0  0  0
  7  9  1  0  0  0
  9 11  1  0  0  0
  9 10  1  0  0  0
 11 12  1  0  0  0
 11 17  2  0  0  0
 12 13  2  0  0  0
 13 14  1  0  0  0
 14 18  1  0  0  0
 14 15  2  0  0  0
 18 19  1  0  0  0
 18 20  1  0  0  0
 18 21  1  0  0  0
 15 16  1  0  0  0
 15 17  1  0  0  0
M  END
> <minimizedAffinity>
-7.57894

$$$$
