CHEMBL4081711


 29 31  0  0  0  0  0  0  0  0999 V2000
  -30.2024   -5.1319   -5.5060 C   0  0  0  0  0  0  0  0  0  0  0  0
  -31.0435   -5.5673   -4.5401 N   0  0  0  0  0  0  0  0  0  0  0  0
  -31.3594   -4.6946   -3.5700 C   0  0  0  0  0  0  0  0  0  0  0  0
  -30.8832   -3.3962   -3.5182 C   0  0  0  0  0  0  0  0  0  0  0  0
  -30.0250   -2.9491   -4.5297 C   0  0  0  0  0  0  0  0  0  0  0  0
  -29.5198   -1.6368   -4.5369 C   0  0  0  0  0  0  0  0  0  0  0  0
  -28.6491   -1.1581   -5.5469 C   0  0  0  0  0  0  0  0  0  0  0  0
  -28.3065   -2.0230   -6.5979 C   0  0  0  0  0  0  0  0  0  0  0  0
  -28.8243   -3.3385   -6.5831 C   0  0  0  0  0  0  0  0  0  0  0  0
  -29.6702   -3.8251   -5.5638 C   0  0  0  0  0  0  0  0  0  0  0  0
  -28.2380    0.2724   -5.4059 C   0  0  0  0  0  0  0  0  0  0  0  0
  -28.0043    0.9781   -6.5607 N   0  0  0  0  0  0  0  0  0  0  0  0
  -28.0647    0.8277   -4.3326 O   0  0  0  0  0  0  0  0  0  0  0  0
  -28.1393    0.6221   -7.4950 H   0  0  0  0  0  0  0  0  0  0  0  0
  -27.7182    1.9443   -6.4551 H   0  0  0  0  0  0  0  0  0  0  0  0
  -27.5161   -1.8659   -7.6992 O   0  0  0  0  0  0  0  0  0  0  0  0
  -27.7482   -2.5545   -8.9124 C   0  0  0  0  0  0  0  0  0  0  0  0
  -29.8231   -6.0229   -6.4943 O   0  0  0  0  0  0  0  0  0  0  0  0
  -29.1161   -7.1848   -6.0268 C   0  0  0  0  0  0  0  0  0  0  0  0
  -29.5165   -9.3065   -7.5206 C   0  0  0  0  0  0  0  0  0  0  0  0
  -29.9348   -8.4495   -6.3102 C   0  0  0  0  0  0  0  0  0  0  0  0
  -31.3221   -8.1562   -6.5876 N   0  0  0  0  0  0  0  0  0  0  0  0
  -31.8950   -9.0865   -7.4373 C   0  0  0  0  0  0  0  0  0  0  0  0
  -33.0648   -9.0855   -7.7791 O   0  0  0  0  0  0  0  0  0  0  0  0
  -30.8140  -10.0829   -7.8095 C   0  0  0  0  0  0  0  0  0  0  0  0
  -30.8441  -10.5285   -9.0900 F   0  0  0  0  0  0  0  0  0  0  0  0
  -31.8805   -7.4547   -6.1141 H   0  0  0  0  0  0  0  0  0  0  0  0
  -27.5229   -8.8233   -9.1436 C   0  0  0  0  0  0  0  0  0  0  0  0
  -28.9691   -8.5487   -8.7498 C   0  0  0  0  0  0  0  0  0  0  0  0
 28 29  1  0  0  0
 20 21  1  0  0  0
 20 25  1  0  0  0
 20 29  1  0  0  0
 21 19  1  0  0  0
 21 22  1  0  0  0
 19 18  1  0  0  0
 18  1  1  0  0  0
  1  2  1  0  0  0
  1 10  2  0  0  0
  2  3  2  0  0  0
  3  4  1  0  0  0
  4  5  2  0  0  0
  5  6  1  0  0  0
  5 10  1  0  0  0
  6  7  2  0  0  0
  7 11  1  0  0  0
  7  8  1  0  0  0
 11 12  1  0  0  0
 11 13  2  0  0  0
 12 14  1  0  0  0
 12 15  1  0  0  0
  8 16  1  0  0  0
  8  9  2  0  0  0
 16 17  1  0  0  0
  9 10  1  0  0  0
 22 23  1  0  0  0
 22 27  1  0  0  0
 23 24  2  0  0  0
 23 25  1  0  0  0
 25 26  1  0  0  0
M  END
> <minimizedAffinity>
-8.29881

$$$$
