CHEMBL3979885


 40 44  0  0  0  0  0  0  0  0999 V2000
  -29.6127   -6.6794   -6.3775 N   0  0  0  0  0  0  0  0  0  0  0  0
  -28.8565   -5.5123   -6.7583 C   0  0  0  0  0  0  0  0  0  0  0  0
  -29.0447   -4.4287   -5.9057 C   0  0  0  0  0  0  0  0  0  0  0  0
  -28.8418   -3.1441   -6.3563 C   0  0  0  0  0  0  0  0  0  0  0  0
  -28.3120   -2.8671   -7.5915 C   0  0  0  0  0  0  0  0  0  0  0  0
  -28.3676   -1.5546   -7.8535 N   0  0  0  0  0  0  0  0  0  0  0  0
  -27.7566   -1.1413   -8.9652 C   0  0  0  0  0  0  0  0  0  0  0  0
  -27.0472   -1.9907   -9.7810 C   0  0  0  0  0  0  0  0  0  0  0  0
  -27.0625   -3.3710   -9.5634 N   0  0  0  0  0  0  0  0  0  0  0  0
  -27.7810   -3.8750   -8.4292 C   0  0  0  0  0  0  0  0  0  0  0  0
  -28.1324   -5.2427   -7.9765 C   0  0  0  0  0  0  0  0  0  0  0  0
  -26.2589   -1.2935  -10.8174 C   0  0  0  0  0  0  0  0  0  0  0  0
  -26.5255   -1.1318  -12.2160 C   0  0  0  0  0  0  0  0  0  0  0  0
  -25.4401   -0.8115  -12.9381 N   0  0  0  0  0  0  0  0  0  0  0  0
  -24.4511   -0.8012  -12.0302 N   0  0  0  0  0  0  0  0  0  0  0  0
  -23.1297   -0.3265  -12.3794 C   0  0  0  0  0  0  0  0  0  0  0  0
  -24.8651   -1.2360  -10.7980 C   0  0  0  0  0  0  0  0  0  0  0  0
  -29.9574   -9.5150   -8.8441 C   0  0  0  0  0  0  0  0  0  0  0  0
  -31.2280   -9.9949   -8.5258 C   0  0  0  0  0  0  0  0  0  0  0  0
  -31.9758   -9.3650   -7.5369 C   0  0  0  0  0  0  0  0  0  0  0  0
  -31.4503   -8.2507   -6.8709 C   0  0  0  0  0  0  0  0  0  0  0  0
  -30.1889   -7.7121   -7.1727 C   0  0  0  0  0  0  0  0  0  0  0  0
  -29.4532   -8.3701   -8.1859 C   0  0  0  0  0  0  0  0  0  0  0  0
  -29.0417  -11.5510   -9.7233 C   0  0  0  0  0  0  0  0  0  0  0  0
  -29.1232  -10.1230   -9.7609 O   0  0  0  0  0  0  0  0  0  0  0  0
  -33.2148   -9.7553   -7.1059 O   0  0  0  0  0  0  0  0  0  0  0  0
  -33.3016  -11.0018   -6.4285 C   0  0  0  0  0  0  0  0  0  0  0  0
  -30.2911   -6.4409   -5.0265 C   0  0  0  0  0  0  0  0  0  0  0  0
  -29.6194   -7.0790   -3.7651 C   0  0  0  0  0  0  0  0  0  0  0  0
  -28.3729   -7.8433   -4.0522 N   0  0  0  0  0  0  0  0  0  0  0  0
  -28.2872   -9.1831   -3.7904 C   0  0  0  0  0  0  0  0  0  0  0  0
  -29.1834   -9.8037   -3.2184 O   0  0  0  0  0  0  0  0  0  0  0  0
  -27.7035   -7.4288   -4.6973 H   0  0  0  0  0  0  0  0  0  0  0  0
  -26.9980   -9.9188   -4.2116 C   0  0  0  0  0  0  0  0  0  0  0  0
  -25.7335   -9.1904   -3.7505 C   0  0  0  0  0  0  0  0  0  0  0  0
  -24.4748   -9.8240   -4.3522 C   0  0  0  0  0  0  0  0  0  0  0  0
  -24.5629   -9.9425   -5.8736 C   0  0  0  0  0  0  0  0  0  0  0  0
  -25.7554  -10.7035   -6.2656 N   0  0  0  0  0  0  0  0  0  0  0  0
  -25.8225  -10.8087   -7.7286 C   0  0  0  0  0  0  0  0  0  0  0  0
  -26.9815  -10.0613   -5.7527 C   0  0  0  0  0  0  0  0  0  0  0  0
 24 25  1  0  0  0
 25 18  1  0  0  0
 18 19  1  0  0  0
 18 23  2  0  0  0
 19 20  2  0  0  0
 20 26  1  0  0  0
 20 21  1  0  0  0
 26 27  1  0  0  0
 21 22  2  0  0  0
 22  1  1  0  0  0
 22 23  1  0  0  0
  1 28  1  0  0  0
  1  2  1  0  0  0
 28 29  1  0  0  0
 29 30  1  0  0  0
 30 31  1  0  0  0
 30 33  1  0  0  0
 31 32  2  0  0  0
 31 34  1  0  0  0
 34 35  1  0  0  0
 34 40  1  0  0  0
 35 36  1  0  0  0
 36 37  1  0  0  0
 37 38  1  0  0  0
 38 39  1  0  0  0
 38 40  1  0  0  0
  2  3  1  0  0  0
  2 11  2  0  0  0
  3  4  2  0  0  0
  4  5  1  0  0  0
  5  6  1  0  0  0
  5 10  2  0  0  0
  6  7  2  0  0  0
  7  8  1  0  0  0
  8 12  1  0  0  0
  8  9  2  0  0  0
 12 13  1  0  0  0
 12 17  2  0  0  0
 13 14  2  0  0  0
 14 15  1  0  0  0
 15 16  1  0  0  0
 15 17  1  0  0  0
  9 10  1  0  0  0
 10 11  1  0  0  0
M  END
> <minimizedAffinity>
-8.29077

$$$$
