CHEMBL3288527


 33 37  0  0  0  0  0  0  0  0999 V2000
  -17.3387    1.2058  -15.4322 C   0  0  0  0  0  0  0  0  0  0  0  0
  -18.1626    0.0716  -15.3884 C   0  0  0  0  0  0  0  0  0  0  0  0
  -19.5342    0.1600  -15.1201 C   0  0  0  0  0  0  0  0  0  0  0  0
  -20.1373    1.3803  -14.8041 C   0  0  0  0  0  0  0  0  0  0  0  0
  -19.3198    2.5240  -14.8479 C   0  0  0  0  0  0  0  0  0  0  0  0
  -17.9692    2.4391  -15.2187 C   0  0  0  0  0  0  0  0  0  0  0  0
  -19.7447    3.7927  -14.5243 O   0  0  0  0  0  0  0  0  0  0  0  0
  -20.9792    3.7977  -13.8064 C   0  0  0  0  0  0  0  0  0  0  0  0
  -21.9999    2.9061  -14.4938 C   0  0  0  0  0  0  0  0  0  0  0  0
  -21.5371    1.5113  -14.4657 N   0  0  0  0  0  0  0  0  0  0  0  0
  -22.3014    0.4147  -14.0615 C   0  0  0  0  0  0  0  0  0  0  0  0
  -21.8186   -0.7069  -13.9070 O   0  0  0  0  0  0  0  0  0  0  0  0
  -23.6383    0.6612  -13.8008 N   0  0  0  0  0  0  0  0  0  0  0  0
  -24.0468    1.4768  -14.2242 H   0  0  0  0  0  0  0  0  0  0  0  0
  -15.9118    0.0630  -12.5623 N   0  0  0  0  0  0  0  0  0  0  0  0
  -14.8777    0.2264  -13.3991 C   0  0  0  0  0  0  0  0  0  0  0  0
  -13.6418   -0.0282  -12.9789 N   0  0  0  0  0  0  0  0  0  0  0  0
  -12.8873    0.1982  -14.0577 N   0  0  0  0  0  0  0  0  0  0  0  0
  -13.5863    0.5901  -15.1654 C   0  0  0  0  0  0  0  0  0  0  0  0
  -13.1273    0.8818  -16.4526 C   0  0  0  0  0  0  0  0  0  0  0  0
  -14.0729    1.2742  -17.3898 C   0  0  0  0  0  0  0  0  0  0  0  0
  -15.4154    1.3806  -17.0355 C   0  0  0  0  0  0  0  0  0  0  0  0
  -15.8950    1.0818  -15.7312 C   0  0  0  0  0  0  0  0  0  0  0  0
  -14.9273    0.6574  -14.7701 C   0  0  0  0  0  0  0  0  0  0  0  0
  -15.6993   -0.3746  -11.6737 H   0  0  0  0  0  0  0  0  0  0  0  0
  -16.8277   -0.1804  -12.9218 H   0  0  0  0  0  0  0  0  0  0  0  0
  -11.8878    0.0603  -13.9775 H   0  0  0  0  0  0  0  0  0  0  0  0
  -24.5635   -0.2711  -13.2693 C   0  0  0  0  0  0  0  0  0  0  0  0
  -25.2872   -1.1853  -14.0492 C   0  0  0  0  0  0  0  0  0  0  0  0
  -26.2341   -2.0350  -13.4729 C   0  0  0  0  0  0  0  0  0  0  0  0
  -26.4503   -2.0049  -12.0999 C   0  0  0  0  0  0  0  0  0  0  0  0
  -25.7065   -1.1364  -11.3056 C   0  0  0  0  0  0  0  0  0  0  0  0
  -24.7649   -0.2766  -11.8864 C   0  0  0  0  0  0  0  0  0  0  0  0
 15 16  1  0  0  0
 15 25  1  0  0  0
 15 26  1  0  0  0
 16 17  2  0  0  0
 16 24  1  0  0  0
 17 18  1  0  0  0
 18 19  1  0  0  0
 18 27  1  0  0  0
 19 20  1  0  0  0
 19 24  2  0  0  0
 20 21  2  0  0  0
 21 22  1  0  0  0
 22 23  2  0  0  0
 23  1  1  0  0  0
 23 24  1  0  0  0
  1  2  1  0  0  0
  1  6  2  0  0  0
  2  3  2  0  0  0
  3  4  1  0  0  0
  4  5  2  0  0  0
  4 10  1  0  0  0
  5  6  1  0  0  0
  5  7  1  0  0  0
  7  8  1  0  0  0
  8  9  1  0  0  0
  9 10  1  0  0  0
 10 11  1  0  0  0
 11 12  2  0  0  0
 11 13  1  0  0  0
 13 28  1  0  0  0
 13 14  1  0  0  0
 28 29  1  0  0  0
 28 33  2  0  0  0
 29 30  2  0  0  0
 30 31  1  0  0  0
 31 32  2  0  0  0
 32 33  1  0  0  0
M  END
> <minimizedAffinity>
-8.91832

$$$$
