CHEMBL606395


 29 32  0  0  0  0  0  0  0  0999 V2000
  -27.9628   -2.1778   -8.1598 C   0  0  0  0  0  0  0  0  0  0  0  0
  -28.4076   -1.2360   -7.3133 N   0  0  0  0  0  0  0  0  0  0  0  0
  -29.1501   -1.6438   -6.2762 C   0  0  0  0  0  0  0  0  0  0  0  0
  -29.4322   -2.9651   -6.0520 C   0  0  0  0  0  0  0  0  0  0  0  0
  -29.1110   -3.8432   -7.0689 C   0  0  0  0  0  0  0  0  0  0  0  0
  -28.3800   -3.4602   -8.1356 N   0  0  0  0  0  0  0  0  0  0  0  0
  -29.3718   -5.2822   -6.8866 C   0  0  0  0  0  0  0  0  0  0  0  0
  -30.3297   -5.9581   -7.6560 C   0  0  0  0  0  0  0  0  0  0  0  0
  -30.6164   -7.3127   -7.4217 C   0  0  0  0  0  0  0  0  0  0  0  0
  -29.8792   -8.0352   -6.4831 C   0  0  0  0  0  0  0  0  0  0  0  0
  -28.9022   -7.3825   -5.7322 C   0  0  0  0  0  0  0  0  0  0  0  0
  -28.7407   -5.9995   -5.8485 C   0  0  0  0  0  0  0  0  0  0  0  0
  -28.0504   -5.3541   -4.8032 N   0  0  0  0  0  0  0  0  0  0  0  0
  -28.4782   -4.2031   -4.1720 C   0  0  0  0  0  0  0  0  0  0  0  0
  -27.8720   -3.7842   -3.1848 O   0  0  0  0  0  0  0  0  0  0  0  0
  -29.7353   -3.5028   -4.6932 C   0  0  0  0  0  0  0  0  0  0  0  0
  -27.3630   -5.8768   -4.2721 H   0  0  0  0  0  0  0  0  0  0  0  0
  -26.8980   -1.7523   -8.9492 N   0  0  0  0  0  0  0  0  0  0  0  0
  -26.1379   -1.4526   -8.3586 H   0  0  0  0  0  0  0  0  0  0  0  0
  -26.3593   -1.6006  -13.1306 C   0  0  0  0  0  0  0  0  0  0  0  0
  -25.2560   -1.5579  -12.2733 C   0  0  0  0  0  0  0  0  0  0  0  0
  -25.4353   -1.5850  -10.8952 C   0  0  0  0  0  0  0  0  0  0  0  0
  -26.7046   -1.6806  -10.3269 C   0  0  0  0  0  0  0  0  0  0  0  0
  -27.8133   -1.6558  -11.1889 C   0  0  0  0  0  0  0  0  0  0  0  0
  -27.6391   -1.6220  -12.5794 C   0  0  0  0  0  0  0  0  0  0  0  0
  -25.0857   -1.1483  -15.0761 C   0  0  0  0  0  0  0  0  0  0  0  0
  -26.3035   -1.6114  -14.4989 O   0  0  0  0  0  0  0  0  0  0  0  0
  -30.0417   -9.3558   -6.1678 O   0  0  0  0  0  0  0  0  0  0  0  0
  -28.8613  -10.1214   -5.9629 C   0  0  0  0  0  0  0  0  0  0  0  0
 26 27  1  0  0  0
 27 20  1  0  0  0
 20 21  1  0  0  0
 20 25  2  0  0  0
 21 22  2  0  0  0
 22 23  1  0  0  0
 23 18  1  0  0  0
 23 24  2  0  0  0
 18  1  1  0  0  0
 18 19  1  0  0  0
  1  2  1  0  0  0
  1  6  2  0  0  0
  2  3  2  0  0  0
  3  4  1  0  0  0
  4  5  2  0  0  0
  4 16  1  0  0  0
  5  6  1  0  0  0
  5  7  1  0  0  0
  7  8  1  0  0  0
  7 12  2  0  0  0
  8  9  2  0  0  0
  9 10  1  0  0  0
 10 28  1  0  0  0
 10 11  2  0  0  0
 28 29  1  0  0  0
 11 12  1  0  0  0
 12 13  1  0  0  0
 13 14  1  0  0  0
 13 17  1  0  0  0
 14 15  2  0  0  0
 14 16  1  0  0  0
 24 25  1  0  0  0
M  END
> <minimizedAffinity>
-8.24747

$$$$
