CHEMBL1076202


 44 48  0  0  0  0  0  0  0  0999 V2000
  -16.1525   -5.7424  -13.3502 N   0  0  0  0  0  0  0  0  0  0  0  0
  -17.0938   -5.6302  -13.7174 H   0  0  0  0  0  0  0  0  0  0  0  0
  -15.4684   -6.5516  -14.2164 C   0  0  0  0  0  0  0  0  0  0  0  0
  -15.3967   -7.8383  -13.9124 N   0  0  0  0  0  0  0  0  0  0  0  0
  -14.0976   -7.9671  -13.5034 C   0  0  0  0  0  0  0  0  0  0  0  0
  -13.5100   -8.9602  -12.7097 C   0  0  0  0  0  0  0  0  0  0  0  0
  -12.1786   -8.7895  -12.3251 C   0  0  0  0  0  0  0  0  0  0  0  0
  -11.4349   -7.6860  -12.7506 C   0  0  0  0  0  0  0  0  0  0  0  0
  -11.9900   -6.7116  -13.5857 C   0  0  0  0  0  0  0  0  0  0  0  0
  -13.3301   -6.8895  -13.9447 C   0  0  0  0  0  0  0  0  0  0  0  0
  -14.2292   -6.2343  -14.7831 N   0  0  0  0  0  0  0  0  0  0  0  0
  -13.9733   -5.7543  -16.1060 C   0  0  0  0  0  0  0  0  0  0  0  0
  -13.4062   -4.5054  -16.2792 C   0  0  0  0  0  0  0  0  0  0  0  0
  -13.1519   -4.0721  -17.5637 C   0  0  0  0  0  0  0  0  0  0  0  0
  -13.3717   -4.8647  -18.6141 N   0  0  0  0  0  0  0  0  0  0  0  0
  -13.8361   -6.1006  -18.3527 C   0  0  0  0  0  0  0  0  0  0  0  0
  -14.2100   -6.5680  -17.1547 N   0  0  0  0  0  0  0  0  0  0  0  0
  -12.7447   -2.7514  -17.7119 N   0  0  0  0  0  0  0  0  0  0  0  0
  -11.7505   -2.6051  -17.5635 H   0  0  0  0  0  0  0  0  0  0  0  0
  -13.3736   -1.8696  -18.6834 C   0  0  0  0  0  0  0  0  0  0  0  0
  -13.6044   -0.4812  -18.0795 C   0  0  0  0  0  0  0  0  0  0  0  0
  -13.2927   -0.4593  -16.6489 C   0  0  0  0  0  0  0  0  0  0  0  0
  -13.0473   -0.4355  -15.5156 N   0  0  0  0  0  0  0  0  0  0  0  0
  -14.6949   -5.9646  -10.8287 C   0  0  0  0  0  0  0  0  0  0  0  0
  -15.0832   -4.6429  -11.4499 C   0  0  0  0  0  0  0  0  0  0  0  0
  -14.7578   -3.4638  -10.7670 C   0  0  0  0  0  0  0  0  0  0  0  0
  -15.0536   -2.2183  -11.3248 C   0  0  0  0  0  0  0  0  0  0  0  0
  -15.6125   -2.1196  -12.6071 C   0  0  0  0  0  0  0  0  0  0  0  0
  -15.9037   -3.3020  -13.2924 C   0  0  0  0  0  0  0  0  0  0  0  0
  -15.7441   -4.5598  -12.7003 C   0  0  0  0  0  0  0  0  0  0  0  0
  -15.8878   -0.7499  -13.1664 C   0  0  0  0  0  0  0  0  0  0  0  0
  -15.4834    0.2113  -12.5172 O   0  0  0  0  0  0  0  0  0  0  0  0
  -16.6209   -0.6577  -14.3500 N   0  0  0  0  0  0  0  0  0  0  0  0
  -17.0276   -1.5044  -14.7176 H   0  0  0  0  0  0  0  0  0  0  0  0
  -17.0535    0.5435  -14.9724 C   0  0  0  0  0  0  0  0  0  0  0  0
  -16.2137    1.4079  -15.6644 C   0  0  0  0  0  0  0  0  0  0  0  0
  -16.6901    2.6316  -16.1468 C   0  0  0  0  0  0  0  0  0  0  0  0
  -17.9969    3.0395  -15.8887 C   0  0  0  0  0  0  0  0  0  0  0  0
  -18.8645    2.1948  -15.2008 C   0  0  0  0  0  0  0  0  0  0  0  0
  -18.3968    0.9164  -14.8427 C   0  0  0  0  0  0  0  0  0  0  0  0
  -20.2348    2.6775  -14.7921 C   0  0  0  0  0  0  0  0  0  0  0  0
  -21.0392    1.6931  -14.3029 F   0  0  0  0  0  0  0  0  0  0  0  0
  -20.1960    3.6164  -13.8131 F   0  0  0  0  0  0  0  0  0  0  0  0
  -20.9263    3.2388  -15.8224 F   0  0  0  0  0  0  0  0  0  0  0  0
 24 25  1  0  0  0
 25 26  1  0  0  0
 25 30  2  0  0  0
 26 27  2  0  0  0
 27 28  1  0  0  0
 28 31  1  0  0  0
 28 29  2  0  0  0
 31 32  2  0  0  0
 31 33  1  0  0  0
 33 35  1  0  0  0
 33 34  1  0  0  0
 35 36  1  0  0  0
 35 40  2  0  0  0
 36 37  2  0  0  0
 37 38  1  0  0  0
 38 39  2  0  0  0
 39 41  1  0  0  0
 39 40  1  0  0  0
 41 42  1  0  0  0
 41 43  1  0  0  0
 41 44  1  0  0  0
 29 30  1  0  0  0
 30  1  1  0  0  0
  1  3  1  0  0  0
  1  2  1  0  0  0
  3  4  2  0  0  0
  3 11  1  0  0  0
  4  5  1  0  0  0
  5  6  1  0  0  0
  5 10  2  0  0  0
  6  7  2  0  0  0
  7  8  1  0  0  0
  8  9  2  0  0  0
  9 10  1  0  0  0
 10 11  1  0  0  0
 11 12  1  0  0  0
 12 13  1  0  0  0
 12 17  2  0  0  0
 13 14  2  0  0  0
 14 18  1  0  0  0
 14 15  1  0  0  0
 18 20  1  0  0  0
 18 19  1  0  0  0
 20 21  1  0  0  0
 21 22  1  0  0  0
 22 23  3  0  0  0
 15 16  2  0  0  0
 16 17  1  0  0  0
M  END
> <minimizedAffinity>
-9.52199

$$$$
