CHEMBL2069624


 23 24  0  0  0  0  0  0  0  0999 V2000
  -28.2291   -1.3452  -10.3373 O   0  0  0  0  0  0  0  0  0  0  0  0
  -27.3144   -2.0772   -9.9779 C   0  0  0  0  0  0  0  0  0  0  0  0
  -27.1567   -2.5511   -8.6835 N   0  0  0  0  0  0  0  0  0  0  0  0
  -26.2900   -2.5007  -10.8036 N   0  0  0  0  0  0  0  0  0  0  0  0
  -26.2729   -2.9806   -8.4650 H   0  0  0  0  0  0  0  0  0  0  0  0
  -25.6599   -3.2074  -10.4510 H   0  0  0  0  0  0  0  0  0  0  0  0
  -26.0455   -2.0885  -12.1404 C   0  0  0  0  0  0  0  0  0  0  0  0
  -27.0495   -1.9999  -13.1131 C   0  0  0  0  0  0  0  0  0  0  0  0
  -26.7607   -1.5697  -14.4116 C   0  0  0  0  0  0  0  0  0  0  0  0
  -25.4623   -1.2126  -14.7590 C   0  0  0  0  0  0  0  0  0  0  0  0
  -24.4481   -1.2895  -13.8069 C   0  0  0  0  0  0  0  0  0  0  0  0
  -24.7377   -1.7250  -12.5090 C   0  0  0  0  0  0  0  0  0  0  0  0
  -23.4393   -1.7890  -11.3637 Cl  0  0  0  0  0  0  0  0  0  0  0  0
  -27.9989   -2.2416   -7.5867 C   0  0  0  0  0  0  0  0  0  0  0  0
  -28.8532   -3.1717   -6.9863 C   0  0  0  0  0  0  0  0  0  0  0  0
  -29.7149   -2.7947   -5.9571 C   0  0  0  0  0  0  0  0  0  0  0  0
  -29.7194   -1.4814   -5.4972 C   0  0  0  0  0  0  0  0  0  0  0  0
  -28.8448   -0.5403   -6.0525 C   0  0  0  0  0  0  0  0  0  0  0  0
  -27.9804   -0.9316   -7.0935 C   0  0  0  0  0  0  0  0  0  0  0  0
  -28.8299    0.8842   -5.5539 C   0  0  0  0  0  0  0  0  0  0  0  0
  -27.9297    1.1055   -4.5555 F   0  0  0  0  0  0  0  0  0  0  0  0
  -28.5223    1.7735   -6.5381 F   0  0  0  0  0  0  0  0  0  0  0  0
  -30.0374    1.2752   -5.0615 F   0  0  0  0  0  0  0  0  0  0  0  0
  1  2  2  0  0  0
  2  3  1  0  0  0
  2  4  1  0  0  0
  3 14  1  0  0  0
  3  5  1  0  0  0
 14 15  1  0  0  0
 14 19  2  0  0  0
 15 16  2  0  0  0
 16 17  1  0  0  0
 17 18  2  0  0  0
 18 20  1  0  0  0
 18 19  1  0  0  0
 20 21  1  0  0  0
 20 22  1  0  0  0
 20 23  1  0  0  0
  4  7  1  0  0  0
  4  6  1  0  0  0
  7  8  1  0  0  0
  7 12  2  0  0  0
  8  9  2  0  0  0
  9 10  1  0  0  0
 10 11  2  0  0  0
 11 12  1  0  0  0
 12 13  1  0  0  0
M  END
> <minimizedAffinity>
-9.71377

$$$$
