CHEMBL221736


 22 25  0  0  0  0  0  0  0  0999 V2000
  -31.1562   -5.2287   -4.1158 O   0  0  0  0  0  0  0  0  0  0  0  0
  -30.6018   -5.7356   -5.0906 C   0  0  0  0  0  0  0  0  0  0  0  0
  -30.9221   -7.0088   -5.4905 N   0  0  0  0  0  0  0  0  0  0  0  0
  -30.3169   -7.6598   -6.5710 C   0  0  0  0  0  0  0  0  0  0  0  0
  -30.7007   -8.9553   -6.9150 C   0  0  0  0  0  0  0  0  0  0  0  0
  -30.0825   -9.5923   -7.9926 C   0  0  0  0  0  0  0  0  0  0  0  0
  -29.0857   -8.9376   -8.7186 C   0  0  0  0  0  0  0  0  0  0  0  0
  -28.7063   -7.6399   -8.3723 C   0  0  0  0  0  0  0  0  0  0  0  0
  -29.3240   -6.9961   -7.2964 C   0  0  0  0  0  0  0  0  0  0  0  0
  -28.9651   -5.6300   -6.9256 C   0  0  0  0  0  0  0  0  0  0  0  0
  -29.5561   -4.9942   -5.8961 C   0  0  0  0  0  0  0  0  0  0  0  0
  -31.6319   -7.4777   -4.9459 H   0  0  0  0  0  0  0  0  0  0  0  0
  -29.1934   -3.6379   -5.6243 C   0  0  0  0  0  0  0  0  0  0  0  0
  -28.0204   -3.0186   -5.2306 C   0  0  0  0  0  0  0  0  0  0  0  0
  -28.2419   -1.6181   -5.1736 C   0  0  0  0  0  0  0  0  0  0  0  0
  -27.4229   -0.5141   -4.8724 C   0  0  0  0  0  0  0  0  0  0  0  0
  -27.9682    0.7725   -4.9204 C   0  0  0  0  0  0  0  0  0  0  0  0
  -29.3074    0.9625   -5.2552 C   0  0  0  0  0  0  0  0  0  0  0  0
  -30.1396   -0.1215   -5.5565 C   0  0  0  0  0  0  0  0  0  0  0  0
  -29.5750   -1.4018   -5.5123 C   0  0  0  0  0  0  0  0  0  0  0  0
  -30.1307   -2.6353   -5.7723 N   0  0  0  0  0  0  0  0  0  0  0  0
  -31.0919   -2.7907   -6.0608 H   0  0  0  0  0  0  0  0  0  0  0  0
  1  2  2  0  0  0
  2  3  1  0  0  0
  2 11  1  0  0  0
  3  4  1  0  0  0
  3 12  1  0  0  0
  4  5  1  0  0  0
  4  9  2  0  0  0
  5  6  2  0  0  0
  6  7  1  0  0  0
  7  8  2  0  0  0
  8  9  1  0  0  0
  9 10  1  0  0  0
 10 11  2  0  0  0
 11 13  1  0  0  0
 13 14  2  0  0  0
 13 21  1  0  0  0
 14 15  1  0  0  0
 15 16  1  0  0  0
 15 20  2  0  0  0
 16 17  2  0  0  0
 17 18  1  0  0  0
 18 19  2  0  0  0
 19 20  1  0  0  0
 20 21  1  0  0  0
 21 22  1  0  0  0
M  END
> <minimizedAffinity>
-8.60193

$$$$
