CHEMBL3945350


 44 48  0  0  0  0  0  0  0  0999 V2000
  -26.2111   -0.8663   -9.2371 O   0  0  0  0  0  0  0  0  0  0  0  0
  -26.7760   -1.8267   -9.7530 C   0  0  0  0  0  0  0  0  0  0  0  0
  -27.7826   -2.5561   -9.1327 N   0  0  0  0  0  0  0  0  0  0  0  0
  -26.4631   -2.3334  -11.0054 N   0  0  0  0  0  0  0  0  0  0  0  0
  -28.0746   -3.4107   -9.5809 H   0  0  0  0  0  0  0  0  0  0  0  0
  -27.0871   -3.0248  -11.3930 H   0  0  0  0  0  0  0  0  0  0  0  0
  -25.3887   -1.9117  -11.8270 C   0  0  0  0  0  0  0  0  0  0  0  0
  -24.0684   -1.8067  -11.3762 C   0  0  0  0  0  0  0  0  0  0  0  0
  -23.0354   -1.4127  -12.2319 C   0  0  0  0  0  0  0  0  0  0  0  0
  -23.3115   -1.0631  -13.5520 C   0  0  0  0  0  0  0  0  0  0  0  0
  -24.6205   -1.1993  -14.0146 C   0  0  0  0  0  0  0  0  0  0  0  0
  -24.9123   -0.9261  -15.2951 F   0  0  0  0  0  0  0  0  0  0  0  0
  -25.6543   -1.6164  -13.1677 C   0  0  0  0  0  0  0  0  0  0  0  0
  -22.3493   -0.6386  -14.4449 O   0  0  0  0  0  0  0  0  0  0  0  0
  -21.9382    0.6799  -14.4051 C   0  0  0  0  0  0  0  0  0  0  0  0
  -22.7189    1.7027  -13.8752 C   0  0  0  0  0  0  0  0  0  0  0  0
  -22.1793    2.9683  -13.8466 C   0  0  0  0  0  0  0  0  0  0  0  0
  -20.9679    3.2663  -14.3482 N   0  0  0  0  0  0  0  0  0  0  0  0
  -20.2429    2.2949  -14.9196 C   0  0  0  0  0  0  0  0  0  0  0  0
  -20.6945    0.9788  -14.9697 C   0  0  0  0  0  0  0  0  0  0  0  0
  -18.9972    2.6027  -15.4881 N   0  0  0  0  0  0  0  0  0  0  0  0
  -17.7862    2.2247  -14.9402 C   0  0  0  0  0  0  0  0  0  0  0  0
  -17.5949    1.5720  -13.9264 O   0  0  0  0  0  0  0  0  0  0  0  0
  -18.9880    3.1406  -16.3373 H   0  0  0  0  0  0  0  0  0  0  0  0
  -16.5983    2.7296  -15.7012 C   0  0  0  0  0  0  0  0  0  0  0  0
  -15.7297    1.7532  -16.4703 C   0  0  0  0  0  0  0  0  0  0  0  0
  -15.2098    2.3832  -15.2120 C   0  0  0  0  0  0  0  0  0  0  0  0
  -28.2979   -2.3144   -7.8333 C   0  0  0  0  0  0  0  0  0  0  0  0
  -28.7791   -3.3284   -6.9964 C   0  0  0  0  0  0  0  0  0  0  0  0
  -29.2618   -3.0586   -5.7094 C   0  0  0  0  0  0  0  0  0  0  0  0
  -29.2932   -1.7331   -5.2732 C   0  0  0  0  0  0  0  0  0  0  0  0
  -28.8131   -0.6950   -6.0846 C   0  0  0  0  0  0  0  0  0  0  0  0
  -28.3048   -0.9989   -7.3613 C   0  0  0  0  0  0  0  0  0  0  0  0
  -29.6510   -4.1236   -4.8376 N   0  0  0  0  0  0  0  0  0  0  0  0
  -31.0281   -4.6293   -4.9224 C   0  0  0  0  0  0  0  0  0  0  0  0
  -31.3739   -5.6032   -3.8014 C   0  0  0  0  0  0  0  0  0  0  0  0
  -30.4257   -6.6659   -3.8084 O   0  0  0  0  0  0  0  0  0  0  0  0
  -29.1378   -6.1612   -3.4955 C   0  0  0  0  0  0  0  0  0  0  0  0
  -28.6575   -4.8784   -4.1961 C   0  0  0  0  0  0  0  0  0  0  0  0
  -27.4622   -4.5783   -4.1576 O   0  0  0  0  0  0  0  0  0  0  0  0
  -28.8188    0.7280   -5.5884 C   0  0  0  0  0  0  0  0  0  0  0  0
  -27.9102    0.9774   -4.6062 F   0  0  0  0  0  0  0  0  0  0  0  0
  -28.5574    1.6224   -6.5812 F   0  0  0  0  0  0  0  0  0  0  0  0
  -30.0286    1.0884   -5.0749 F   0  0  0  0  0  0  0  0  0  0  0  0
  1  2  2  0  0  0
  2  3  1  0  0  0
  2  4  1  0  0  0
  3 28  1  0  0  0
  3  5  1  0  0  0
 28 29  1  0  0  0
 28 33  2  0  0  0
 29 30  2  0  0  0
 30 34  1  0  0  0
 30 31  1  0  0  0
 34 35  1  0  0  0
 34 39  1  0  0  0
 35 36  1  0  0  0
 36 37  1  0  0  0
 37 38  1  0  0  0
 38 39  1  0  0  0
 39 40  2  0  0  0
 31 32  2  0  0  0
 32 41  1  0  0  0
 32 33  1  0  0  0
 41 42  1  0  0  0
 41 43  1  0  0  0
 41 44  1  0  0  0
  4  7  1  0  0  0
  4  6  1  0  0  0
  7  8  1  0  0  0
  7 13  2  0  0  0
  8  9  2  0  0  0
  9 10  1  0  0  0
 10 14  1  0  0  0
 10 11  2  0  0  0
 14 15  1  0  0  0
 15 16  1  0  0  0
 15 20  2  0  0  0
 16 17  2  0  0  0
 17 18  1  0  0  0
 18 19  2  0  0  0
 19 21  1  0  0  0
 19 20  1  0  0  0
 21 22  1  0  0  0
 21 24  1  0  0  0
 22 23  2  0  0  0
 22 25  1  0  0  0
 25 26  1  0  0  0
 25 27  1  0  0  0
 26 27  1  0  0  0
 11 12  1  0  0  0
 11 13  1  0  0  0
M  END
> <minimizedAffinity>
-12.83442

$$$$
