CHEMBL571040


 38 41  0  0  0  0  0  0  0  0999 V2000
  -27.2097   -8.7259   -5.0812 C   0  0  0  0  0  0  0  0  0  0  0  0
  -27.7637   -9.0261   -6.3281 C   0  0  0  0  0  0  0  0  0  0  0  0
  -27.0883   -9.8913   -7.2178 C   0  0  0  0  0  0  0  0  0  0  0  0
  -27.4929  -10.1854   -8.5293 C   0  0  0  0  0  0  0  0  0  0  0  0
  -26.7807  -11.0037   -9.3286 N   0  0  0  0  0  0  0  0  0  0  0  0
  -25.6495  -11.5078   -8.8330 C   0  0  0  0  0  0  0  0  0  0  0  0
  -25.1596  -11.2779   -7.6158 N   0  0  0  0  0  0  0  0  0  0  0  0
  -25.8717  -10.4733   -6.8256 C   0  0  0  0  0  0  0  0  0  0  0  0
  -25.3709  -10.2006   -5.5626 C   0  0  0  0  0  0  0  0  0  0  0  0
  -26.0346   -9.3640   -4.6644 C   0  0  0  0  0  0  0  0  0  0  0  0
  -28.3661   -6.6094   -4.8973 C   0  0  0  0  0  0  0  0  0  0  0  0
  -28.2246   -6.3342   -6.0867 O   0  0  0  0  0  0  0  0  0  0  0  0
  -27.8398   -7.7435   -4.2925 N   0  0  0  0  0  0  0  0  0  0  0  0
  -28.4129   -8.0962   -3.5366 H   0  0  0  0  0  0  0  0  0  0  0  0
  -29.3339   -3.3836   -5.0890 C   0  0  0  0  0  0  0  0  0  0  0  0
  -29.9448   -2.5999   -5.8038 O   0  0  0  0  0  0  0  0  0  0  0  0
  -29.8588   -4.5703   -4.6341 N   0  0  0  0  0  0  0  0  0  0  0  0
  -31.2564   -4.8969   -4.8337 C   0  0  0  0  0  0  0  0  0  0  0  0
  -31.5954   -5.7619   -3.6347 C   0  0  0  0  0  0  0  0  0  0  0  0
  -30.2959   -6.4901   -3.2946 C   0  0  0  0  0  0  0  0  0  0  0  0
  -29.1694   -5.6753   -3.9530 C   0  0  0  0  0  0  0  0  0  0  0  0
  -27.3278   -1.9840   -5.0836 C   0  0  0  0  0  0  0  0  0  0  0  0
  -27.9149   -3.1329   -4.7285 C   0  0  0  0  0  0  0  0  0  0  0  0
  -28.6617   -9.5878   -9.0766 N   0  0  0  0  0  0  0  0  0  0  0  0
  -28.5280   -8.5849   -9.1811 H   0  0  0  0  0  0  0  0  0  0  0  0
  -29.9676   -9.9031   -8.6173 C   0  0  0  0  0  0  0  0  0  0  0  0
  -30.4519  -11.2188   -8.7046 C   0  0  0  0  0  0  0  0  0  0  0  0
  -31.6943  -11.5678   -8.1734 C   0  0  0  0  0  0  0  0  0  0  0  0
  -32.4883  -10.5937   -7.5734 C   0  0  0  0  0  0  0  0  0  0  0  0
  -32.0491   -9.2695   -7.5364 C   0  0  0  0  0  0  0  0  0  0  0  0
  -33.0558   -8.0739   -6.8113 Cl  0  0  0  0  0  0  0  0  0  0  0  0
  -30.8021   -8.9253   -8.0652 C   0  0  0  0  0  0  0  0  0  0  0  0
  -30.3709   -7.6525   -8.0212 F   0  0  0  0  0  0  0  0  0  0  0  0
  -25.4320   -9.2839   -3.4328 O   0  0  0  0  0  0  0  0  0  0  0  0
  -24.3017  -10.1348   -3.2541 C   0  0  0  0  0  0  0  0  0  0  0  0
  -24.6188  -11.3055   -2.3305 C   0  0  0  0  0  0  0  0  0  0  0  0
  -23.3738  -11.9286   -2.0031 O   0  0  0  0  0  0  0  0  0  0  0  0
  -22.2650  -11.2951   -2.6200 C   0  0  0  0  0  0  0  0  0  0  0  0
 22 23  2  0  0  0
 23 15  1  0  0  0
 15 16  2  0  0  0
 15 17  1  0  0  0
 17 18  1  0  0  0
 17 21  1  0  0  0
 18 19  1  0  0  0
 19 20  1  0  0  0
 20 21  1  0  0  0
 21 11  1  0  0  0
 11 12  2  0  0  0
 11 13  1  0  0  0
 13  1  1  0  0  0
 13 14  1  0  0  0
  1  2  1  0  0  0
  1 10  2  0  0  0
  2  3  2  0  0  0
  3  4  1  0  0  0
  3  8  1  0  0  0
  4 24  1  0  0  0
  4  5  2  0  0  0
 24 26  1  0  0  0
 24 25  1  0  0  0
 26 27  1  0  0  0
 26 32  2  0  0  0
 27 28  2  0  0  0
 28 29  1  0  0  0
 29 30  2  0  0  0
 30 31  1  0  0  0
 30 32  1  0  0  0
 32 33  1  0  0  0
  5  6  1  0  0  0
  6  7  2  0  0  0
  7  8  1  0  0  0
  8  9  2  0  0  0
  9 10  1  0  0  0
 10 34  1  0  0  0
 34 35  1  0  0  0
 35 36  1  0  0  0
 36 37  1  0  0  0
 37 38  1  0  0  0
M  END
> <minimizedAffinity>
-7.87874

$$$$
