CHEMBL3739587


 36 40  0  0  0  0  0  0  0  0999 V2000
  -13.6492   -1.8928  -14.6693 C   0  0  0  0  0  0  0  0  0  0  0  0
  -13.3188   -2.3562  -15.9398 C   0  0  0  0  0  0  0  0  0  0  0  0
  -12.9006   -1.6746  -17.2017 C   0  0  0  0  0  0  0  0  0  0  0  0
  -13.4108   -3.7322  -15.9263 N   0  0  0  0  0  0  0  0  0  0  0  0
  -13.7553   -4.2021  -14.6801 C   0  0  0  0  0  0  0  0  0  0  0  0
  -13.9009   -3.0819  -13.8578 C   0  0  0  0  0  0  0  0  0  0  0  0
  -13.2262   -4.3242  -16.7246 H   0  0  0  0  0  0  0  0  0  0  0  0
  -13.9569   -5.6362  -14.4094 C   0  0  0  0  0  0  0  0  0  0  0  0
  -12.8572   -6.4602  -14.1279 C   0  0  0  0  0  0  0  0  0  0  0  0
  -13.0346   -7.7158  -13.5528 C   0  0  0  0  0  0  0  0  0  0  0  0
  -14.3177   -8.2090  -13.3447 C   0  0  0  0  0  0  0  0  0  0  0  0
  -15.4218   -7.4558  -13.7416 C   0  0  0  0  0  0  0  0  0  0  0  0
  -15.2445   -6.1712  -14.2672 C   0  0  0  0  0  0  0  0  0  0  0  0
  -14.3066   -3.1434  -12.4400 C   0  0  0  0  0  0  0  0  0  0  0  0
  -13.4304   -3.6386  -11.4676 C   0  0  0  0  0  0  0  0  0  0  0  0
  -13.7602   -3.6187  -10.1116 C   0  0  0  0  0  0  0  0  0  0  0  0
  -15.0369   -3.2421   -9.7170 C   0  0  0  0  0  0  0  0  0  0  0  0
  -15.9602   -2.8363  -10.6757 C   0  0  0  0  0  0  0  0  0  0  0  0
  -15.5781   -2.7298  -12.0173 C   0  0  0  0  0  0  0  0  0  0  0  0
  -13.7406   -0.4932  -14.1873 C   0  0  0  0  0  0  0  0  0  0  0  0
  -12.9663   -0.0057  -13.3724 O   0  0  0  0  0  0  0  0  0  0  0  0
  -14.7857    1.4006  -15.5667 C   0  0  0  0  0  0  0  0  0  0  0  0
  -15.9796    2.0146  -15.6680 N   0  0  0  0  0  0  0  0  0  0  0  0
  -16.7947    1.3503  -14.8113 N   0  0  0  0  0  0  0  0  0  0  0  0
  -16.1241    0.3702  -14.1299 C   0  0  0  0  0  0  0  0  0  0  0  0
  -14.8434    0.3326  -14.6300 C   0  0  0  0  0  0  0  0  0  0  0  0
  -18.1687    1.6873  -14.6880 C   0  0  0  0  0  0  0  0  0  0  0  0
  -18.5308    2.9819  -14.2907 C   0  0  0  0  0  0  0  0  0  0  0  0
  -19.8801    3.3236  -14.1721 C   0  0  0  0  0  0  0  0  0  0  0  0
  -20.8629    2.3741  -14.4438 C   0  0  0  0  0  0  0  0  0  0  0  0
  -22.5237    2.7894  -14.2869 Cl  0  0  0  0  0  0  0  0  0  0  0  0
  -20.5118    1.0878  -14.8446 C   0  0  0  0  0  0  0  0  0  0  0  0
  -19.1659    0.7417  -14.9717 C   0  0  0  0  0  0  0  0  0  0  0  0
  -13.7510    1.8017  -17.8694 C   0  0  0  0  0  0  0  0  0  0  0  0
  -13.6242    1.8241  -16.3673 C   0  0  0  0  0  0  0  0  0  0  0  0
  -12.5530    2.1370  -15.8458 O   0  0  0  0  0  0  0  0  0  0  0  0
 34 35  1  0  0  0
 35 36  2  0  0  0
 35 22  1  0  0  0
 22 23  2  0  0  0
 22 26  1  0  0  0
 23 24  1  0  0  0
 24 27  1  0  0  0
 24 25  1  0  0  0
 27 28  1  0  0  0
 27 33  2  0  0  0
 28 29  2  0  0  0
 29 30  1  0  0  0
 30 31  1  0  0  0
 30 32  2  0  0  0
 32 33  1  0  0  0
 25 26  2  0  0  0
 26 20  1  0  0  0
 20 21  2  0  0  0
 20  1  1  0  0  0
  1  2  2  0  0  0
  1  6  1  0  0  0
  2  3  1  0  0  0
  2  4  1  0  0  0
  4  5  1  0  0  0
  4  7  1  0  0  0
  5  8  1  0  0  0
  5  6  2  0  0  0
  8  9  1  0  0  0
  8 13  2  0  0  0
  9 10  2  0  0  0
 10 11  1  0  0  0
 11 12  2  0  0  0
 12 13  1  0  0  0
  6 14  1  0  0  0
 14 15  1  0  0  0
 14 19  2  0  0  0
 15 16  2  0  0  0
 16 17  1  0  0  0
 17 18  2  0  0  0
 18 19  1  0  0  0
M  END
> <minimizedAffinity>
-8.87229

$$$$
