CHEMBL2071215


 26 28  0  0  0  0  0  0  0  0999 V2000
  -27.6333   -2.4637   -8.6077 C   0  0  0  0  0  0  0  0  0  0  0  0
  -27.5586   -1.1684   -8.2891 N   0  0  0  0  0  0  0  0  0  0  0  0
  -27.9563   -0.8418   -7.0383 C   0  0  0  0  0  0  0  0  0  0  0  0
  -28.4477   -1.7412   -6.1090 C   0  0  0  0  0  0  0  0  0  0  0  0
  -28.9178   -1.1640   -4.5648 Cl  0  0  0  0  0  0  0  0  0  0  0  0
  -28.5459   -3.0474   -6.5469 C   0  0  0  0  0  0  0  0  0  0  0  0
  -28.1390   -3.3931   -7.7817 N   0  0  0  0  0  0  0  0  0  0  0  0
  -27.1131   -2.8556   -9.8426 N   0  0  0  0  0  0  0  0  0  0  0  0
  -27.3725   -3.8157  -10.0270 H   0  0  0  0  0  0  0  0  0  0  0  0
  -24.1115   -0.0121  -12.4110 C   0  0  0  0  0  0  0  0  0  0  0  0
  -25.2367   -0.7927  -11.9554 N   0  0  0  0  0  0  0  0  0  0  0  0
  -25.3688   -1.4384  -10.7571 C   0  0  0  0  0  0  0  0  0  0  0  0
  -26.5904   -2.0645  -10.8017 C   0  0  0  0  0  0  0  0  0  0  0  0
  -27.1172   -1.7242  -12.0700 C   0  0  0  0  0  0  0  0  0  0  0  0
  -26.2862   -0.9545  -12.7778 N   0  0  0  0  0  0  0  0  0  0  0  0
  -29.0500   -4.1494   -5.8560 N   0  0  0  0  0  0  0  0  0  0  0  0
  -28.2949   -4.5097   -5.2736 H   0  0  0  0  0  0  0  0  0  0  0  0
  -30.3713   -4.4784   -5.4550 C   0  0  0  0  0  0  0  0  0  0  0  0
  -30.6912   -4.2017   -3.9694 C   0  0  0  0  0  0  0  0  0  0  0  0
  -31.4751   -5.5303   -3.9588 C   0  0  0  0  0  0  0  0  0  0  0  0
  -30.6074   -5.9904   -5.1602 C   0  0  0  0  0  0  0  0  0  0  0  0
  -29.4791   -7.0127   -4.8685 C   0  0  0  0  0  0  0  0  0  0  0  0
  -29.7706   -8.3466   -4.9876 N   0  0  0  0  0  0  0  0  0  0  0  0
  -28.3283   -6.7048   -4.5474 O   0  0  0  0  0  0  0  0  0  0  0  0
  -30.6418   -8.7166   -5.3373 H   0  0  0  0  0  0  0  0  0  0  0  0
  -28.9999   -8.9948   -4.8648 H   0  0  0  0  0  0  0  0  0  0  0  0
 10 11  1  0  0  0
 11 12  1  0  0  0
 11 15  1  0  0  0
 12 13  2  0  0  0
 13  8  1  0  0  0
 13 14  1  0  0  0
  8  1  1  0  0  0
  8  9  1  0  0  0
  1  2  1  0  0  0
  1  7  2  0  0  0
  2  3  2  0  0  0
  3  4  1  0  0  0
  4  5  1  0  0  0
  4  6  2  0  0  0
  6 16  1  0  0  0
  6  7  1  0  0  0
 16 18  1  0  0  0
 16 17  1  0  0  0
 18 19  1  0  0  0
 18 21  1  0  0  0
 19 20  1  0  0  0
 20 21  1  0  0  0
 21 22  1  0  0  0
 22 23  1  0  0  0
 22 24  2  0  0  0
 23 25  1  0  0  0
 23 26  1  0  0  0
 14 15  2  0  0  0
M  END
> <minimizedAffinity>
-7.70071

$$$$
