CHEMBL3774489


 25 27  0  0  0  0  0  0  0  0999 V2000
  -27.8289   -1.6783   -5.4576 C   0  0  0  0  0  0  0  0  0  0  0  0
  -28.3554   -2.4366   -4.4035 C   0  0  0  0  0  0  0  0  0  0  0  0
  -29.0901   -3.5910   -4.6143 C   0  0  0  0  0  0  0  0  0  0  0  0
  -29.6107   -4.1949   -3.5444 N   0  0  0  0  0  0  0  0  0  0  0  0
  -30.3671   -5.2690   -3.7761 C   0  0  0  0  0  0  0  0  0  0  0  0
  -30.6284   -5.7944   -4.9709 N   0  0  0  0  0  0  0  0  0  0  0  0
  -30.0748   -5.1954   -6.0444 C   0  0  0  0  0  0  0  0  0  0  0  0
  -29.2788   -4.0436   -5.9238 C   0  0  0  0  0  0  0  0  0  0  0  0
  -28.7035   -3.3172   -6.9953 C   0  0  0  0  0  0  0  0  0  0  0  0
  -27.9590   -2.1546   -6.7663 C   0  0  0  0  0  0  0  0  0  0  0  0
  -28.0782    0.6148   -4.9450 C   0  0  0  0  0  0  0  0  0  0  0  0
  -27.2053   -0.4756   -5.2427 O   0  0  0  0  0  0  0  0  0  0  0  0
  -30.3295   -5.7543   -7.3261 N   0  0  0  0  0  0  0  0  0  0  0  0
  -30.1142   -5.0643   -8.0442 H   0  0  0  0  0  0  0  0  0  0  0  0
  -29.8854   -7.0485   -7.7119 C   0  0  0  0  0  0  0  0  0  0  0  0
  -28.5664   -7.2233   -8.1601 C   0  0  0  0  0  0  0  0  0  0  0  0
  -28.1361   -8.4654   -8.6185 C   0  0  0  0  0  0  0  0  0  0  0  0
  -26.8754   -8.6301   -9.1117 O   0  0  0  0  0  0  0  0  0  0  0  0
  -28.9854   -9.5626   -8.6021 C   0  0  0  0  0  0  0  0  0  0  0  0
  -30.2881   -9.4177   -8.1235 C   0  0  0  0  0  0  0  0  0  0  0  0
  -30.7342   -8.1685   -7.6777 C   0  0  0  0  0  0  0  0  0  0  0  0
  -32.3642   -8.0217   -7.1204 Cl  0  0  0  0  0  0  0  0  0  0  0  0
  -26.4641   -7.7523   -9.1962 H   0  0  0  0  0  0  0  0  0  0  0  0
  -27.4932   -1.5631   -7.9095 O   0  0  0  0  0  0  0  0  0  0  0  0
  -27.6193   -2.3201   -9.1091 C   0  0  0  0  0  0  0  0  0  0  0  0
 11 12  1  0  0  0
 12  1  1  0  0  0
  1  2  1  0  0  0
  1 10  2  0  0  0
  2  3  2  0  0  0
  3  4  1  0  0  0
  3  8  1  0  0  0
  4  5  2  0  0  0
  5  6  1  0  0  0
  6  7  2  0  0  0
  7 13  1  0  0  0
  7  8  1  0  0  0
 13 15  1  0  0  0
 13 14  1  0  0  0
 15 16  1  0  0  0
 15 21  2  0  0  0
 16 17  2  0  0  0
 17 18  1  0  0  0
 17 19  1  0  0  0
 18 23  1  0  0  0
 19 20  2  0  0  0
 20 21  1  0  0  0
 21 22  1  0  0  0
  8  9  2  0  0  0
  9 10  1  0  0  0
 10 24  1  0  0  0
 24 25  1  0  0  0
M  END
> <minimizedAffinity>
-7.81358

$$$$
