CHEMBL203000


 18 19  0  0  0  0  0  0  0  0999 V2000
  -29.7647   -2.7631   -4.8332 N   0  0  0  0  0  0  0  0  0  0  0  0
  -29.7525   -2.1180   -4.0510 H   0  0  0  0  0  0  0  0  0  0  0  0
  -28.9451   -2.2560   -5.8530 C   0  0  0  0  0  0  0  0  0  0  0  0
  -28.4958   -0.9507   -5.8754 C   0  0  0  0  0  0  0  0  0  0  0  0
  -27.8097   -0.5524   -6.9922 C   0  0  0  0  0  0  0  0  0  0  0  0
  -27.5336   -1.3733   -8.0133 N   0  0  0  0  0  0  0  0  0  0  0  0
  -27.9659   -2.6289   -7.8913 C   0  0  0  0  0  0  0  0  0  0  0  0
  -27.6680   -3.4870   -8.9290 N   0  0  0  0  0  0  0  0  0  0  0  0
  -28.6380   -3.1167   -6.8415 N   0  0  0  0  0  0  0  0  0  0  0  0
  -26.8971   -3.1048   -9.4597 H   0  0  0  0  0  0  0  0  0  0  0  0
  -27.5741   -4.4317   -8.5873 H   0  0  0  0  0  0  0  0  0  0  0  0
  -29.5663   -6.4192   -4.0064 C   0  0  0  0  0  0  0  0  0  0  0  0
  -30.7866   -6.1291   -4.5624 C   0  0  0  0  0  0  0  0  0  0  0  0
  -30.9903   -4.8013   -4.8607 N   0  0  0  0  0  0  0  0  0  0  0  0
  -29.9279   -4.0814   -4.5705 C   0  0  0  0  0  0  0  0  0  0  0  0
  -28.6542   -4.9841   -3.8269 S   0  0  0  0  0  0  0  0  0  0  0  0
  -28.7565   -8.7710   -3.3222 N   0  0  0  0  0  0  0  0  0  0  0  0
  -29.1275   -7.7177   -3.6434 C   0  0  0  0  0  0  0  0  0  0  0  0
 17 18  3  0  0  0
 18 12  1  0  0  0
 12 13  2  0  0  0
 12 16  1  0  0  0
 13 14  1  0  0  0
 14 15  2  0  0  0
 15  1  1  0  0  0
 15 16  1  0  0  0
  1  3  1  0  0  0
  1  2  1  0  0  0
  3  4  1  0  0  0
  3  9  2  0  0  0
  4  5  2  0  0  0
  5  6  1  0  0  0
  6  7  2  0  0  0
  7  8  1  0  0  0
  7  9  1  0  0  0
  8 10  1  0  0  0
  8 11  1  0  0  0
M  END
> <minimizedAffinity>
-5.65607

$$$$
