CHEMBL249500


 36 42  0  0  0  0  0  0  0  0999 V2000
  -30.2739   -5.8273   -6.8350 C   0  0  0  0  0  0  0  0  0  0  0  0
  -30.5561   -5.4508   -5.5098 C   0  0  0  0  0  0  0  0  0  0  0  0
  -30.3047   -4.2486   -4.9162 N   0  0  0  0  0  0  0  0  0  0  0  0
  -29.6651   -3.3990   -5.7388 C   0  0  0  0  0  0  0  0  0  0  0  0
  -29.2203   -2.1455   -5.4339 N   0  0  0  0  0  0  0  0  0  0  0  0
  -28.5446   -1.5407   -6.4399 N   0  0  0  0  0  0  0  0  0  0  0  0
  -28.6026   -2.4482   -7.4313 C   0  0  0  0  0  0  0  0  0  0  0  0
  -29.3191   -3.6115   -7.0587 C   0  0  0  0  0  0  0  0  0  0  0  0
  -29.6957   -4.8333   -7.6393 C   0  0  0  0  0  0  0  0  0  0  0  0
  -29.3313   -1.6651   -4.5497 H   0  0  0  0  0  0  0  0  0  0  0  0
  -27.9723   -9.6205   -9.7503 C   0  0  0  0  0  0  0  0  0  0  0  0
  -27.4904   -8.4293   -9.2330 C   0  0  0  0  0  0  0  0  0  0  0  0
  -28.3052   -7.6472   -8.4073 C   0  0  0  0  0  0  0  0  0  0  0  0
  -29.6536   -7.9891   -8.1171 C   0  0  0  0  0  0  0  0  0  0  0  0
  -30.5736   -7.1880   -7.3573 C   0  0  0  0  0  0  0  0  0  0  0  0
  -31.8414   -7.7445   -7.1322 C   0  0  0  0  0  0  0  0  0  0  0  0
  -32.2612   -8.9537   -7.5633 N   0  0  0  0  0  0  0  0  0  0  0  0
  -31.3833   -9.6592   -8.3009 C   0  0  0  0  0  0  0  0  0  0  0  0
  -30.0953   -9.2350   -8.6189 C   0  0  0  0  0  0  0  0  0  0  0  0
  -29.2610  -10.0324   -9.4263 C   0  0  0  0  0  0  0  0  0  0  0  0
  -27.9186   -2.2330   -8.7396 C   0  0  0  0  0  0  0  0  0  0  0  0
  -26.6442   -1.9343   -8.9039 N   0  0  0  0  0  0  0  0  0  0  0  0
  -26.4702   -1.8160  -10.2632 C   0  0  0  0  0  0  0  0  0  0  0  0
  -25.3077   -1.5243  -10.9996 C   0  0  0  0  0  0  0  0  0  0  0  0
  -25.3500   -1.4406  -12.4036 C   0  0  0  0  0  0  0  0  0  0  0  0
  -26.5952   -1.6585  -13.0254 C   0  0  0  0  0  0  0  0  0  0  0  0
  -27.7751   -1.9537  -12.3209 C   0  0  0  0  0  0  0  0  0  0  0  0
  -27.6655   -2.0265  -10.9366 C   0  0  0  0  0  0  0  0  0  0  0  0
  -28.5699   -2.2963   -9.9441 N   0  0  0  0  0  0  0  0  0  0  0  0
  -29.5538   -2.4990  -10.0461 H   0  0  0  0  0  0  0  0  0  0  0  0
  -24.2206   -1.1769  -13.1560 N   0  0  0  0  0  0  0  0  0  0  0  0
  -22.8509   -1.3081  -12.6347 C   0  0  0  0  0  0  0  0  0  0  0  0
  -22.1343    0.0495  -12.6734 C   0  0  0  0  0  0  0  0  0  0  0  0
  -22.1575    0.6188  -13.9943 O   0  0  0  0  0  0  0  0  0  0  0  0
  -23.5147    0.8102  -14.4284 C   0  0  0  0  0  0  0  0  0  0  0  0
  -24.2973   -0.5153  -14.4686 C   0  0  0  0  0  0  0  0  0  0  0  0
 11 12  1  0  0  0
 11 20  2  0  0  0
 12 13  2  0  0  0
 13 14  1  0  0  0
 14 15  1  0  0  0
 14 19  2  0  0  0
 15  1  1  0  0  0
 15 16  2  0  0  0
  1  2  1  0  0  0
  1  9  2  0  0  0
  2  3  2  0  0  0
  3  4  1  0  0  0
  4  5  1  0  0  0
  4  8  2  0  0  0
  5  6  1  0  0  0
  5 10  1  0  0  0
  6  7  2  0  0  0
  7 21  1  0  0  0
  7  8  1  0  0  0
 21 22  2  0  0  0
 21 29  1  0  0  0
 22 23  1  0  0  0
 23 24  1  0  0  0
 23 28  2  0  0  0
 24 25  2  0  0  0
 25 31  1  0  0  0
 25 26  1  0  0  0
 31 32  1  0  0  0
 31 36  1  0  0  0
 32 33  1  0  0  0
 33 34  1  0  0  0
 34 35  1  0  0  0
 35 36  1  0  0  0
 26 27  2  0  0  0
 27 28  1  0  0  0
 28 29  1  0  0  0
 29 30  1  0  0  0
  8  9  1  0  0  0
 16 17  1  0  0  0
 17 18  2  0  0  0
 18 19  1  0  0  0
 19 20  1  0  0  0
M  END
> <minimizedAffinity>
-10.76462

$$$$
