CHEMBL3978101


 38 41  0  0  0  0  0  0  0  0999 V2000
  -27.7970   -9.3168   -2.7798 C   0  0  0  0  0  0  0  0  0  0  0  0
  -28.3058   -8.8102   -4.1003 C   0  0  0  0  0  0  0  0  0  0  0  0
  -27.7163   -9.3405   -5.2589 C   0  0  0  0  0  0  0  0  0  0  0  0
  -28.0783   -8.9266   -6.5466 C   0  0  0  0  0  0  0  0  0  0  0  0
  -29.1269   -8.0195   -6.6718 C   0  0  0  0  0  0  0  0  0  0  0  0
  -29.7362   -7.4873   -5.5265 C   0  0  0  0  0  0  0  0  0  0  0  0
  -29.2792   -7.8151   -4.2372 C   0  0  0  0  0  0  0  0  0  0  0  0
  -27.4005   -9.3749   -7.7071 N   0  0  0  0  0  0  0  0  0  0  0  0
  -27.9025   -9.3245   -8.9953 C   0  0  0  0  0  0  0  0  0  0  0  0
  -28.9896   -8.8530   -9.3100 O   0  0  0  0  0  0  0  0  0  0  0  0
  -27.0620   -9.9278   -9.9224 N   0  0  0  0  0  0  0  0  0  0  0  0
  -26.5079   -9.8321   -7.5687 H   0  0  0  0  0  0  0  0  0  0  0  0
  -26.5508  -10.7254   -9.5765 H   0  0  0  0  0  0  0  0  0  0  0  0
  -27.4374   -9.9647  -11.2874 C   0  0  0  0  0  0  0  0  0  0  0  0
  -28.5863  -10.6658  -11.6507 C   0  0  0  0  0  0  0  0  0  0  0  0
  -29.0106  -10.6544  -12.9803 C   0  0  0  0  0  0  0  0  0  0  0  0
  -28.2771   -9.9721  -13.9583 C   0  0  0  0  0  0  0  0  0  0  0  0
  -27.1392   -9.2531  -13.6018 C   0  0  0  0  0  0  0  0  0  0  0  0
  -26.7106   -9.2787  -12.2702 C   0  0  0  0  0  0  0  0  0  0  0  0
  -26.3511   -8.5195  -14.4342 O   0  0  0  0  0  0  0  0  0  0  0  0
  -26.1288   -8.9508  -15.7685 C   0  0  0  0  0  0  0  0  0  0  0  0
  -27.1578   -8.7136  -16.6067 F   0  0  0  0  0  0  0  0  0  0  0  0
  -25.0453   -8.3024  -16.2539 F   0  0  0  0  0  0  0  0  0  0  0  0
  -25.8575  -10.2747  -15.7734 F   0  0  0  0  0  0  0  0  0  0  0  0
  -29.7919   -7.2062   -3.1016 O   0  0  0  0  0  0  0  0  0  0  0  0
  -30.3007   -5.9196   -3.2146 C   0  0  0  0  0  0  0  0  0  0  0  0
  -31.6606   -5.6382   -3.1215 C   0  0  0  0  0  0  0  0  0  0  0  0
  -32.0479   -4.3186   -3.1719 C   0  0  0  0  0  0  0  0  0  0  0  0
  -31.1879   -3.3060   -3.3674 N   0  0  0  0  0  0  0  0  0  0  0  0
  -29.8858   -3.5740   -3.5440 C   0  0  0  0  0  0  0  0  0  0  0  0
  -29.3968   -4.8768   -3.4655 C   0  0  0  0  0  0  0  0  0  0  0  0
  -29.0006   -2.5066   -3.8002 N   0  0  0  0  0  0  0  0  0  0  0  0
  -28.8374   -1.9363   -5.0548 C   0  0  0  0  0  0  0  0  0  0  0  0
  -29.4088   -2.2382   -6.0922 O   0  0  0  0  0  0  0  0  0  0  0  0
  -28.4429   -2.1647   -3.0348 H   0  0  0  0  0  0  0  0  0  0  0  0
  -27.8133   -0.8392   -5.1106 C   0  0  0  0  0  0  0  0  0  0  0  0
  -28.2522    0.5987   -4.8949 C   0  0  0  0  0  0  0  0  0  0  0  0
  -27.8444    0.1424   -6.2637 C   0  0  0  0  0  0  0  0  0  0  0  0
  1  2  1  0  0  0
  2  3  1  0  0  0
  2  7  2  0  0  0
  3  4  2  0  0  0
  4  8  1  0  0  0
  4  5  1  0  0  0
  8  9  1  0  0  0
  8 12  1  0  0  0
  9 10  2  0  0  0
  9 11  1  0  0  0
 11 14  1  0  0  0
 11 13  1  0  0  0
 14 15  1  0  0  0
 14 19  2  0  0  0
 15 16  2  0  0  0
 16 17  1  0  0  0
 17 18  2  0  0  0
 18 20  1  0  0  0
 18 19  1  0  0  0
 20 21  1  0  0  0
 21 22  1  0  0  0
 21 23  1  0  0  0
 21 24  1  0  0  0
  5  6  2  0  0  0
  6  7  1  0  0  0
  7 25  1  0  0  0
 25 26  1  0  0  0
 26 27  1  0  0  0
 26 31  2  0  0  0
 27 28  2  0  0  0
 28 29  1  0  0  0
 29 30  2  0  0  0
 30 32  1  0  0  0
 30 31  1  0  0  0
 32 33  1  0  0  0
 32 35  1  0  0  0
 33 34  2  0  0  0
 33 36  1  0  0  0
 36 37  1  0  0  0
 36 38  1  0  0  0
 37 38  1  0  0  0
M  END
> <minimizedAffinity>
-6.87253

$$$$
