CHEMBL3924816


 38 41  0  0  0  0  0  0  0  0999 V2000
  -27.9485   -2.9479   -8.4661 C   0  0  0  0  0  0  0  0  0  0  0  0
  -27.6769   -2.0475   -7.4295 C   0  0  0  0  0  0  0  0  0  0  0  0
  -28.4041   -2.0800   -6.2336 C   0  0  0  0  0  0  0  0  0  0  0  0
  -29.4290   -3.0069   -6.0600 C   0  0  0  0  0  0  0  0  0  0  0  0
  -29.7670   -3.8344   -7.1326 C   0  0  0  0  0  0  0  0  0  0  0  0
  -30.8029   -4.6813   -7.0488 F   0  0  0  0  0  0  0  0  0  0  0  0
  -29.0253   -3.8251   -8.3174 C   0  0  0  0  0  0  0  0  0  0  0  0
  -26.5701   -0.8111   -9.8744 O   0  0  0  0  0  0  0  0  0  0  0  0
  -26.5295   -1.9709  -10.2644 C   0  0  0  0  0  0  0  0  0  0  0  0
  -27.1818   -3.0294   -9.6563 N   0  0  0  0  0  0  0  0  0  0  0  0
  -25.7795   -2.3826  -11.3544 N   0  0  0  0  0  0  0  0  0  0  0  0
  -26.9048   -3.9553   -9.9549 H   0  0  0  0  0  0  0  0  0  0  0  0
  -26.0985   -3.2018  -11.8543 H   0  0  0  0  0  0  0  0  0  0  0  0
  -24.7905   -1.5978  -12.0084 C   0  0  0  0  0  0  0  0  0  0  0  0
  -23.6034   -1.2235  -11.3703 C   0  0  0  0  0  0  0  0  0  0  0  0
  -22.6202   -0.4935  -12.0436 C   0  0  0  0  0  0  0  0  0  0  0  0
  -22.7932   -0.1297  -13.3824 C   0  0  0  0  0  0  0  0  0  0  0  0
  -23.9846   -0.4953  -14.0293 C   0  0  0  0  0  0  0  0  0  0  0  0
  -24.9701   -1.2242  -13.3490 C   0  0  0  0  0  0  0  0  0  0  0  0
  -26.4165   -1.6388  -14.2036 Cl  0  0  0  0  0  0  0  0  0  0  0  0
  -21.7105    0.6161  -14.1231 C   0  0  0  0  0  0  0  0  0  0  0  0
  -21.1416   -0.1073  -15.1274 F   0  0  0  0  0  0  0  0  0  0  0  0
  -22.1767    1.7556  -14.7038 F   0  0  0  0  0  0  0  0  0  0  0  0
  -20.6883    0.9978  -13.3106 F   0  0  0  0  0  0  0  0  0  0  0  0
  -30.0785   -2.9664   -4.8481 O   0  0  0  0  0  0  0  0  0  0  0  0
  -30.4317   -4.1333   -4.2049 C   0  0  0  0  0  0  0  0  0  0  0  0
  -31.6973   -4.4133   -3.7040 C   0  0  0  0  0  0  0  0  0  0  0  0
  -31.8723   -5.6069   -3.0387 C   0  0  0  0  0  0  0  0  0  0  0  0
  -30.9053   -6.5331   -2.9070 N   0  0  0  0  0  0  0  0  0  0  0  0
  -29.7033   -6.2953   -3.4539 C   0  0  0  0  0  0  0  0  0  0  0  0
  -29.4273   -5.1031   -4.1119 C   0  0  0  0  0  0  0  0  0  0  0  0
  -28.6947   -7.2656   -3.3699 N   0  0  0  0  0  0  0  0  0  0  0  0
  -28.6139   -8.3607   -4.2107 C   0  0  0  0  0  0  0  0  0  0  0  0
  -29.3706   -8.6649   -5.1213 O   0  0  0  0  0  0  0  0  0  0  0  0
  -27.9826   -7.1448   -2.6679 H   0  0  0  0  0  0  0  0  0  0  0  0
  -27.4238   -9.2337   -3.9484 C   0  0  0  0  0  0  0  0  0  0  0  0
  -26.0378   -8.6357   -4.0516 C   0  0  0  0  0  0  0  0  0  0  0  0
  -26.5055   -9.6086   -5.0938 C   0  0  0  0  0  0  0  0  0  0  0  0
  8  9  2  0  0  0
  9 10  1  0  0  0
  9 11  1  0  0  0
 10  1  1  0  0  0
 10 12  1  0  0  0
  1  2  1  0  0  0
  1  7  2  0  0  0
  2  3  2  0  0  0
  3  4  1  0  0  0
  4 25  1  0  0  0
  4  5  2  0  0  0
 25 26  1  0  0  0
 26 27  1  0  0  0
 26 31  2  0  0  0
 27 28  2  0  0  0
 28 29  1  0  0  0
 29 30  2  0  0  0
 30 32  1  0  0  0
 30 31  1  0  0  0
 32 33  1  0  0  0
 32 35  1  0  0  0
 33 34  2  0  0  0
 33 36  1  0  0  0
 36 37  1  0  0  0
 36 38  1  0  0  0
 37 38  1  0  0  0
  5  6  1  0  0  0
  5  7  1  0  0  0
 11 14  1  0  0  0
 11 13  1  0  0  0
 14 15  1  0  0  0
 14 19  2  0  0  0
 15 16  2  0  0  0
 16 17  1  0  0  0
 17 21  1  0  0  0
 17 18  2  0  0  0
 21 22  1  0  0  0
 21 23  1  0  0  0
 21 24  1  0  0  0
 18 19  1  0  0  0
 19 20  1  0  0  0
M  END
> <minimizedAffinity>
-10.79535

$$$$
