CHEMBL3753739


 40 45  0  0  0  0  0  0  0  0999 V2000
  -22.1336    1.0382  -14.4229 N   0  0  0  0  0  0  0  0  0  0  0  0
  -21.2179    0.4033  -15.4016 C   0  0  0  0  0  0  0  0  0  0  0  0
  -19.7196    0.4536  -15.0425 C   0  0  0  0  0  0  0  0  0  0  0  0
  -19.2629    1.8112  -14.7329 N   0  0  0  0  0  0  0  0  0  0  0  0
  -20.1435    2.6590  -13.9215 C   0  0  0  0  0  0  0  0  0  0  0  0
  -21.6548    2.4412  -14.2453 C   0  0  0  0  0  0  0  0  0  0  0  0
  -17.9883    2.2628  -15.0736 C   0  0  0  0  0  0  0  0  0  0  0  0
  -17.8914    3.2466  -15.9926 N   0  0  0  0  0  0  0  0  0  0  0  0
  -16.6713    3.6135  -16.5531 N   0  0  0  0  0  0  0  0  0  0  0  0
  -15.5327    2.9503  -16.2507 C   0  0  0  0  0  0  0  0  0  0  0  0
  -15.5689    1.9033  -15.3022 C   0  0  0  0  0  0  0  0  0  0  0  0
  -14.4620    1.0635  -14.9946 C   0  0  0  0  0  0  0  0  0  0  0  0
  -14.4750    0.1575  -13.9335 C   0  0  0  0  0  0  0  0  0  0  0  0
  -15.5957    0.0755  -13.1361 C   0  0  0  0  0  0  0  0  0  0  0  0
  -16.7260    0.8188  -13.4721 C   0  0  0  0  0  0  0  0  0  0  0  0
  -16.7885    1.6567  -14.6161 C   0  0  0  0  0  0  0  0  0  0  0  0
  -14.3113    3.4579  -16.9462 C   0  0  0  0  0  0  0  0  0  0  0  0
  -13.4227    4.3835  -16.3577 C   0  0  0  0  0  0  0  0  0  0  0  0
  -12.2392    4.7871  -16.9889 C   0  0  0  0  0  0  0  0  0  0  0  0
  -11.9452    4.3324  -18.2675 C   0  0  0  0  0  0  0  0  0  0  0  0
  -12.8371    3.4814  -18.9118 C   0  0  0  0  0  0  0  0  0  0  0  0
  -13.9992    3.0463  -18.2569 C   0  0  0  0  0  0  0  0  0  0  0  0
  -22.1509    0.3333  -13.1163 C   0  0  0  0  0  0  0  0  0  0  0  0
  -23.9999   -1.0756  -12.3332 N   0  0  0  0  0  0  0  0  0  0  0  0
  -23.5526    0.2151  -12.4976 C   0  0  0  0  0  0  0  0  0  0  0  0
  -24.1940    1.2412  -12.2600 O   0  0  0  0  0  0  0  0  0  0  0  0
  -23.4111   -1.8404  -12.6365 H   0  0  0  0  0  0  0  0  0  0  0  0
  -26.8723   -1.7795  -10.3581 C   0  0  0  0  0  0  0  0  0  0  0  0
  -27.5722   -1.7992  -11.5512 C   0  0  0  0  0  0  0  0  0  0  0  0
  -26.4936   -1.5658  -12.8705 S   0  0  0  0  0  0  0  0  0  0  0  0
  -25.2128   -1.3566  -11.7618 C   0  0  0  0  0  0  0  0  0  0  0  0
  -25.5205   -1.4898  -10.4970 N   0  0  0  0  0  0  0  0  0  0  0  0
  -28.6777   -2.5231   -6.5335 C   0  0  0  0  0  0  0  0  0  0  0  0
  -28.1812   -1.2572   -6.8396 C   0  0  0  0  0  0  0  0  0  0  0  0
  -27.5821   -1.0120   -8.0821 C   0  0  0  0  0  0  0  0  0  0  0  0
  -27.4667   -2.0256   -9.0448 C   0  0  0  0  0  0  0  0  0  0  0  0
  -27.9758   -3.2934   -8.7327 C   0  0  0  0  0  0  0  0  0  0  0  0
  -28.5700   -3.5385   -7.4861 C   0  0  0  0  0  0  0  0  0  0  0  0
  -29.4163   -1.8745   -4.3691 C   0  0  0  0  0  0  0  0  0  0  0  0
  -29.2875   -2.8843   -5.3634 O   0  0  0  0  0  0  0  0  0  0  0  0
 39 40  1  0  0  0
 40 33  1  0  0  0
 33 34  1  0  0  0
 33 38  2  0  0  0
 34 35  2  0  0  0
 35 36  1  0  0  0
 36 28  1  0  0  0
 36 37  2  0  0  0
 28 29  2  0  0  0
 28 32  1  0  0  0
 29 30  1  0  0  0
 30 31  1  0  0  0
 31 24  1  0  0  0
 31 32  2  0  0  0
 24 25  1  0  0  0
 24 27  1  0  0  0
 25 26  2  0  0  0
 25 23  1  0  0  0
 23  1  1  0  0  0
  1  2  1  0  0  0
  1  6  1  0  0  0
  2  3  1  0  0  0
  3  4  1  0  0  0
  4  7  1  0  0  0
  4  5  1  0  0  0
  7  8  1  0  0  0
  7 16  2  0  0  0
  8  9  2  0  0  0
  9 10  1  0  0  0
 10 17  1  0  0  0
 10 11  2  0  0  0
 17 18  1  0  0  0
 17 22  2  0  0  0
 18 19  2  0  0  0
 19 20  1  0  0  0
 20 21  2  0  0  0
 21 22  1  0  0  0
 11 12  1  0  0  0
 11 16  1  0  0  0
 12 13  2  0  0  0
 13 14  1  0  0  0
 14 15  2  0  0  0
 15 16  1  0  0  0
  5  6  1  0  0  0
 37 38  1  0  0  0
M  END
> <minimizedAffinity>
-9.26883

$$$$
