CHEMBL1094195


 42 46  0  0  0  0  0  0  0  0999 V2000
  -12.7831    3.5904  -14.8031 C   0  0  0  0  0  0  0  0  0  0  0  0
  -13.5862    2.4750  -14.9939 C   0  0  0  0  0  0  0  0  0  0  0  0
  -14.3247    2.6199  -16.1098 N   0  0  0  0  0  0  0  0  0  0  0  0
  -14.0136    3.8364  -16.6211 C   0  0  0  0  0  0  0  0  0  0  0  0
  -14.5218    4.4371  -17.7695 C   0  0  0  0  0  0  0  0  0  0  0  0
  -14.0128    5.6817  -18.1533 C   0  0  0  0  0  0  0  0  0  0  0  0
  -12.9971    6.3341  -17.3957 C   0  0  0  0  0  0  0  0  0  0  0  0
  -12.5209    5.7113  -16.2124 C   0  0  0  0  0  0  0  0  0  0  0  0
  -13.0526    4.4567  -15.8551 C   0  0  0  0  0  0  0  0  0  0  0  0
  -11.8112    3.7333  -13.6747 C   0  0  0  0  0  0  0  0  0  0  0  0
  -12.2832    3.4374  -11.2356 N   0  0  0  0  0  0  0  0  0  0  0  0
  -12.2128    2.7744  -12.5384 C   0  0  0  0  0  0  0  0  0  0  0  0
  -11.5738    3.0241  -10.5887 H   0  0  0  0  0  0  0  0  0  0  0  0
  -12.1279    4.4682  -11.3074 H   0  0  0  0  0  0  0  0  0  0  0  0
  -15.2344    1.6013  -16.6467 C   0  0  0  0  0  0  0  0  0  0  0  0
  -16.5698    1.7320  -15.9642 C   0  0  0  0  0  0  0  0  0  0  0  0
  -17.1228    0.6588  -15.2455 C   0  0  0  0  0  0  0  0  0  0  0  0
  -18.4167    0.7503  -14.7226 C   0  0  0  0  0  0  0  0  0  0  0  0
  -19.1898    1.9152  -14.9342 C   0  0  0  0  0  0  0  0  0  0  0  0
  -18.5977    2.9992  -15.6097 C   0  0  0  0  0  0  0  0  0  0  0  0
  -17.3009    2.9136  -16.1028 C   0  0  0  0  0  0  0  0  0  0  0  0
  -20.6245    1.9722  -14.5273 C   0  0  0  0  0  0  0  0  0  0  0  0
  -21.2712    3.1848  -14.2214 C   0  0  0  0  0  0  0  0  0  0  0  0
  -22.6019    3.1894  -13.7911 C   0  0  0  0  0  0  0  0  0  0  0  0
  -23.2984    1.9891  -13.6306 C   0  0  0  0  0  0  0  0  0  0  0  0
  -22.6713    0.7657  -13.9116 C   0  0  0  0  0  0  0  0  0  0  0  0
  -21.3494    0.7693  -14.3739 C   0  0  0  0  0  0  0  0  0  0  0  0
  -23.3666   -0.5570  -13.7008 C   0  0  0  0  0  0  0  0  0  0  0  0
  -24.1517   -0.9026  -14.7862 F   0  0  0  0  0  0  0  0  0  0  0  0
  -22.4276   -1.5508  -13.4953 F   0  0  0  0  0  0  0  0  0  0  0  0
  -24.1793   -0.4694  -12.5832 F   0  0  0  0  0  0  0  0  0  0  0  0
  -12.4687    7.5301  -17.8037 O   0  0  0  0  0  0  0  0  0  0  0  0
  -13.2472    8.6495  -18.0675 C   0  0  0  0  0  0  0  0  0  0  0  0
  -13.2159    9.0871  -19.5388 C   0  0  0  0  0  0  0  0  0  0  0  0
  -14.5881    8.8838  -20.1617 C   0  0  0  0  0  0  0  0  0  0  0  0
  -14.8557    7.7428  -20.9405 C   0  0  0  0  0  0  0  0  0  0  0  0
  -16.1065    7.5716  -21.5459 C   0  0  0  0  0  0  0  0  0  0  0  0
  -17.1094    8.5378  -21.3829 C   0  0  0  0  0  0  0  0  0  0  0  0
  -18.3142    8.3922  -21.9725 O   0  0  0  0  0  0  0  0  0  0  0  0
  -16.8566    9.6691  -20.6010 C   0  0  0  0  0  0  0  0  0  0  0  0
  -15.6088    9.8416  -19.9921 C   0  0  0  0  0  0  0  0  0  0  0  0
  -18.5254    7.6305  -22.5317 H   0  0  0  0  0  0  0  0  0  0  0  0
 11 12  1  0  0  0
 11 13  1  0  0  0
 11 14  1  0  0  0
 12 10  1  0  0  0
 10  1  1  0  0  0
  1  2  2  0  0  0
  1  9  1  0  0  0
  2  3  1  0  0  0
  3 15  1  0  0  0
  3  4  1  0  0  0
 15 16  1  0  0  0
 16 17  1  0  0  0
 16 21  2  0  0  0
 17 18  2  0  0  0
 18 19  1  0  0  0
 19 22  1  0  0  0
 19 20  2  0  0  0
 22 23  1  0  0  0
 22 27  2  0  0  0
 23 24  2  0  0  0
 24 25  1  0  0  0
 25 26  2  0  0  0
 26 28  1  0  0  0
 26 27  1  0  0  0
 28 29  1  0  0  0
 28 30  1  0  0  0
 28 31  1  0  0  0
 20 21  1  0  0  0
  4  5  1  0  0  0
  4  9  2  0  0  0
  5  6  2  0  0  0
  6  7  1  0  0  0
  7 32  1  0  0  0
  7  8  2  0  0  0
 32 33  1  0  0  0
 33 34  1  0  0  0
 34 35  1  0  0  0
 35 36  1  0  0  0
 35 41  2  0  0  0
 36 37  2  0  0  0
 37 38  1  0  0  0
 38 39  1  0  0  0
 38 40  2  0  0  0
 39 42  1  0  0  0
 40 41  1  0  0  0
  8  9  1  0  0  0
M  END
> <minimizedAffinity>
-10.11085

$$$$
