CHEMBL3676385


 39 41  0  0  0  0  0  0  0  0999 V2000
  -17.0016    1.5140  -15.1542 C   0  0  0  0  0  0  0  0  0  0  0  0
  -16.6174    0.5146  -14.2606 C   0  0  0  0  0  0  0  0  0  0  0  0
  -15.2501    0.2089  -14.0667 C   0  0  0  0  0  0  0  0  0  0  0  0
  -14.7719   -0.8201  -13.2353 C   0  0  0  0  0  0  0  0  0  0  0  0
  -13.4606   -1.0485  -13.0527 N   0  0  0  0  0  0  0  0  0  0  0  0
  -12.6235   -0.2706  -13.7460 C   0  0  0  0  0  0  0  0  0  0  0  0
  -12.9648    0.7219  -14.5757 N   0  0  0  0  0  0  0  0  0  0  0  0
  -14.2716    0.9622  -14.7296 C   0  0  0  0  0  0  0  0  0  0  0  0
  -14.6776    1.9973  -15.5686 C   0  0  0  0  0  0  0  0  0  0  0  0
  -16.0242    2.3046  -15.7775 C   0  0  0  0  0  0  0  0  0  0  0  0
  -19.1017    2.6123  -14.8133 C   0  0  0  0  0  0  0  0  0  0  0  0
  -18.6654    3.3959  -13.9805 O   0  0  0  0  0  0  0  0  0  0  0  0
  -18.3732    1.6273  -15.4636 N   0  0  0  0  0  0  0  0  0  0  0  0
  -18.6166    1.5402  -16.4426 H   0  0  0  0  0  0  0  0  0  0  0  0
  -21.5135    2.8148  -14.4073 C   0  0  0  0  0  0  0  0  0  0  0  0
  -20.5112    2.6591  -15.2809 C   0  0  0  0  0  0  0  0  0  0  0  0
  -15.6984   -1.6828  -12.6018 N   0  0  0  0  0  0  0  0  0  0  0  0
  -16.6339   -1.2821  -12.6210 H   0  0  0  0  0  0  0  0  0  0  0  0
  -15.7006   -3.0932  -12.5655 C   0  0  0  0  0  0  0  0  0  0  0  0
  -16.2086   -3.8555  -13.6222 C   0  0  0  0  0  0  0  0  0  0  0  0
  -15.9664   -5.2298  -13.6928 C   0  0  0  0  0  0  0  0  0  0  0  0
  -15.2190   -5.8659  -12.6973 C   0  0  0  0  0  0  0  0  0  0  0  0
  -14.8005   -7.6996  -12.9638 Br  0  0  0  0  0  0  0  0  0  0  0  0
  -14.7667   -5.1385  -11.5933 C   0  0  0  0  0  0  0  0  0  0  0  0
  -13.8759   -5.8692  -10.3042 Cl  0  0  0  0  0  0  0  0  0  0  0  0
  -15.0075   -3.7620  -11.5435 C   0  0  0  0  0  0  0  0  0  0  0  0
  -14.5387   -3.0345  -10.5131 F   0  0  0  0  0  0  0  0  0  0  0  0
  -16.2436    3.4006  -16.5858 O   0  0  0  0  0  0  0  0  0  0  0  0
  -15.1938    3.6966  -17.5126 C   0  0  0  0  0  0  0  0  0  0  0  0
  -14.6943    5.1355  -17.3575 C   0  0  0  0  0  0  0  0  0  0  0  0
  -14.0877    5.3342  -16.0462 N   0  0  0  0  0  0  0  0  0  0  0  0
  -12.7570    5.0590  -15.8575 C   0  0  0  0  0  0  0  0  0  0  0  0
  -12.0111    4.6627  -16.7423 O   0  0  0  0  0  0  0  0  0  0  0  0
  -12.3743    5.2499  -14.5577 N   0  0  0  0  0  0  0  0  0  0  0  0
  -14.5037    6.0113  -15.4240 H   0  0  0  0  0  0  0  0  0  0  0  0
  -13.0961    5.2509  -13.8537 H   0  0  0  0  0  0  0  0  0  0  0  0
  -11.0021    5.0405  -14.1368 C   0  0  0  0  0  0  0  0  0  0  0  0
  -10.7808    3.6267  -13.6057 C   0  0  0  0  0  0  0  0  0  0  0  0
  -11.7846    3.2525  -12.5244 C   0  0  0  0  0  0  0  0  0  0  0  0
 15 16  2  0  0  0
 16 11  1  0  0  0
 11 12  2  0  0  0
 11 13  1  0  0  0
 13  1  1  0  0  0
 13 14  1  0  0  0
  1  2  1  0  0  0
  1 10  2  0  0  0
  2  3  2  0  0  0
  3  4  1  0  0  0
  3  8  1  0  0  0
  4 17  1  0  0  0
  4  5  2  0  0  0
 17 19  1  0  0  0
 17 18  1  0  0  0
 19 20  1  0  0  0
 19 26  2  0  0  0
 20 21  2  0  0  0
 21 22  1  0  0  0
 22 23  1  0  0  0
 22 24  2  0  0  0
 24 25  1  0  0  0
 24 26  1  0  0  0
 26 27  1  0  0  0
  5  6  1  0  0  0
  6  7  2  0  0  0
  7  8  1  0  0  0
  8  9  2  0  0  0
  9 10  1  0  0  0
 10 28  1  0  0  0
 28 29  1  0  0  0
 29 30  1  0  0  0
 30 31  1  0  0  0
 31 32  1  0  0  0
 31 35  1  0  0  0
 32 33  2  0  0  0
 32 34  1  0  0  0
 34 37  1  0  0  0
 34 36  1  0  0  0
 37 38  1  0  0  0
 38 39  1  0  0  0
M  END
> <minimizedAffinity>
-7.68102

$$$$
