CHEMBL402550


 37 41  0  0  0  0  0  0  0  0999 V2000
  -29.5287   -6.5977   -7.4332 C   0  0  0  0  0  0  0  0  0  0  0  0
  -30.3353   -7.1738   -6.4517 C   0  0  0  0  0  0  0  0  0  0  0  0
  -30.2835   -8.5511   -6.2276 C   0  0  0  0  0  0  0  0  0  0  0  0
  -29.4432   -9.3583   -7.0019 C   0  0  0  0  0  0  0  0  0  0  0  0
  -28.5853   -8.7613   -7.9211 C   0  0  0  0  0  0  0  0  0  0  0  0
  -27.7107   -9.5027   -8.6158 F   0  0  0  0  0  0  0  0  0  0  0  0
  -28.6226   -7.3908   -8.1417 C   0  0  0  0  0  0  0  0  0  0  0  0
  -29.6229   -5.2097   -7.6337 N   0  0  0  0  0  0  0  0  0  0  0  0
  -30.4470   -4.8703   -8.1223 H   0  0  0  0  0  0  0  0  0  0  0  0
  -28.8064   -4.2274   -7.1180 C   0  0  0  0  0  0  0  0  0  0  0  0
  -28.3091   -3.0203   -8.1511 S   0  0  0  0  0  0  0  0  0  0  0  0
  -28.0181   -4.3098   -3.5993 O   0  0  0  0  0  0  0  0  0  0  0  0
  -28.6957   -3.9090   -4.5455 C   0  0  0  0  0  0  0  0  0  0  0  0
  -28.4263   -4.4494   -5.7944 N   0  0  0  0  0  0  0  0  0  0  0  0
  -27.6575   -5.1013   -5.6956 H   0  0  0  0  0  0  0  0  0  0  0  0
  -29.7790   -2.8591   -4.4280 C   0  0  0  0  0  0  0  0  0  0  0  0
  -29.3356   -1.4719   -4.8184 C   0  0  0  0  0  0  0  0  0  0  0  0
  -27.9963   -1.0900   -4.6623 C   0  0  0  0  0  0  0  0  0  0  0  0
  -27.5842    0.1900   -5.0249 C   0  0  0  0  0  0  0  0  0  0  0  0
  -28.5049    1.1005   -5.5412 C   0  0  0  0  0  0  0  0  0  0  0  0
  -29.8426    0.7350   -5.6824 C   0  0  0  0  0  0  0  0  0  0  0  0
  -30.2595   -0.5453   -5.3202 C   0  0  0  0  0  0  0  0  0  0  0  0
  -29.3642  -10.7245   -6.8879 O   0  0  0  0  0  0  0  0  0  0  0  0
  -29.3146  -11.2944   -5.6353 C   0  0  0  0  0  0  0  0  0  0  0  0
  -30.4035  -11.9140   -5.0186 C   0  0  0  0  0  0  0  0  0  0  0  0
  -30.2581  -12.4045   -3.7378 C   0  0  0  0  0  0  0  0  0  0  0  0
  -29.1122  -12.4013   -3.0368 N   0  0  0  0  0  0  0  0  0  0  0  0
  -28.0251  -11.9032   -3.6834 C   0  0  0  0  0  0  0  0  0  0  0  0
  -26.7007  -11.9073   -3.1619 C   0  0  0  0  0  0  0  0  0  0  0  0
  -25.7654  -11.4121   -4.0496 C   0  0  0  0  0  0  0  0  0  0  0  0
  -26.5324  -10.8172   -5.4660 S   0  0  0  0  0  0  0  0  0  0  0  0
  -28.0860  -11.3481   -4.9586 C   0  0  0  0  0  0  0  0  0  0  0  0
  -24.3276  -11.3763   -3.9087 C   0  0  0  0  0  0  0  0  0  0  0  0
  -23.5112  -11.1911   -4.9274 N   0  0  0  0  0  0  0  0  0  0  0  0
  -22.1983  -11.2822   -4.5101 C   0  0  0  0  0  0  0  0  0  0  0  0
  -22.0181  -11.5255   -3.1673 C   0  0  0  0  0  0  0  0  0  0  0  0
  -23.5404  -11.6327   -2.3939 S   0  0  0  0  0  0  0  0  0  0  0  0
 12 13  2  0  0  0
 13 16  1  0  0  0
 13 14  1  0  0  0
 16 17  1  0  0  0
 17 18  1  0  0  0
 17 22  2  0  0  0
 18 19  2  0  0  0
 19 20  1  0  0  0
 20 21  2  0  0  0
 21 22  1  0  0  0
 14 10  1  0  0  0
 14 15  1  0  0  0
 10 11  2  0  0  0
 10  8  1  0  0  0
  8  1  1  0  0  0
  8  9  1  0  0  0
  1  2  1  0  0  0
  1  7  2  0  0  0
  2  3  2  0  0  0
  3  4  1  0  0  0
  4 23  1  0  0  0
  4  5  2  0  0  0
 23 24  1  0  0  0
 24 25  1  0  0  0
 24 32  2  0  0  0
 25 26  2  0  0  0
 26 27  1  0  0  0
 27 28  2  0  0  0
 28 29  1  0  0  0
 28 32  1  0  0  0
 29 30  2  0  0  0
 30 33  1  0  0  0
 30 31  1  0  0  0
 33 34  2  0  0  0
 33 37  1  0  0  0
 34 35  1  0  0  0
 35 36  2  0  0  0
 36 37  1  0  0  0
 31 32  1  0  0  0
  5  6  1  0  0  0
  5  7  1  0  0  0
M  END
> <minimizedAffinity>
-8.20206

$$$$
