CHEMBL4647945


 58 63  0  0  0  0  0  0  0  0999 V2000
  -27.5818   -4.0609   -8.5880 C   0  0  0  0  0  0  0  0  0  0  0  0
  -27.1398   -3.7483   -9.8253 N   0  0  0  0  0  0  0  0  0  0  0  0
  -27.4500   -2.5578  -10.3412 C   0  0  0  0  0  0  0  0  0  0  0  0
  -28.0502   -1.5871   -9.6451 N   0  0  0  0  0  0  0  0  0  0  0  0
  -28.3323   -1.8545   -8.3577 C   0  0  0  0  0  0  0  0  0  0  0  0
  -28.1253   -3.0798   -7.7573 C   0  0  0  0  0  0  0  0  0  0  0  0
  -28.5562   -3.2688   -6.4175 N   0  0  0  0  0  0  0  0  0  0  0  0
  -29.8980   -3.0835   -6.1147 C   0  0  0  0  0  0  0  0  0  0  0  0
  -30.7114   -2.8378   -6.9995 O   0  0  0  0  0  0  0  0  0  0  0  0
  -27.8894   -3.0367   -5.6965 H   0  0  0  0  0  0  0  0  0  0  0  0
  -30.3246   -3.1484   -4.6840 C   0  0  0  0  0  0  0  0  0  0  0  0
  -31.3366   -4.0644   -4.2822 C   0  0  0  0  0  0  0  0  0  0  0  0
  -31.6557   -4.2295   -2.9296 C   0  0  0  0  0  0  0  0  0  0  0  0
  -30.9762   -3.4821   -1.9741 C   0  0  0  0  0  0  0  0  0  0  0  0
  -29.9846   -2.5817   -2.3542 C   0  0  0  0  0  0  0  0  0  0  0  0
  -29.6512   -2.3981   -3.7009 C   0  0  0  0  0  0  0  0  0  0  0  0
  -32.5741   -5.0914   -2.3977 O   0  0  0  0  0  0  0  0  0  0  0  0
  -32.1279   -6.1015   -1.5072 C   0  0  0  0  0  0  0  0  0  0  0  0
  -28.5865   -1.5509   -3.8591 O   0  0  0  0  0  0  0  0  0  0  0  0
  -28.7734   -0.3764   -4.6427 C   0  0  0  0  0  0  0  0  0  0  0  0
  -27.4263   -5.4303   -8.1724 N   0  0  0  0  0  0  0  0  0  0  0  0
  -27.0009   -5.3504   -7.2374 H   0  0  0  0  0  0  0  0  0  0  0  0
  -28.7068   -7.5713   -8.4681 C   0  0  0  0  0  0  0  0  0  0  0  0
  -29.9240   -8.2702   -8.3540 C   0  0  0  0  0  0  0  0  0  0  0  0
  -31.0277   -7.6757   -7.7291 C   0  0  0  0  0  0  0  0  0  0  0  0
  -30.8954   -6.4194   -7.1611 C   0  0  0  0  0  0  0  0  0  0  0  0
  -29.6860   -5.7354   -7.2674 C   0  0  0  0  0  0  0  0  0  0  0  0
  -28.5937   -6.2572   -7.9986 C   0  0  0  0  0  0  0  0  0  0  0  0
  -27.3195   -8.4626   -9.1258 S   0  0  0  0  0  0  0  0  0  0  0  0
  -26.7681   -9.3052   -8.0823 O   0  0  0  0  0  0  0  0  0  0  0  0
  -26.4904   -7.4898   -9.8137 O   0  0  0  0  0  0  0  0  0  0  0  0
  -28.0052   -9.4652  -10.2995 N   0  0  0  0  0  0  0  0  0  0  0  0
  -29.0036   -9.5778  -10.0848 H   0  0  0  0  0  0  0  0  0  0  0  0
  -28.2655  -11.8850  -10.2712 C   0  0  0  0  0  0  0  0  0  0  0  0
  -27.3109  -10.7386  -10.5550 C   0  0  0  0  0  0  0  0  0  0  0  0
  -27.0956   -2.3779  -11.6721 N   0  0  0  0  0  0  0  0  0  0  0  0
  -27.9415   -2.2839  -12.2210 H   0  0  0  0  0  0  0  0  0  0  0  0
  -25.9906   -1.6981  -12.2038 C   0  0  0  0  0  0  0  0  0  0  0  0
  -24.9708   -1.1547  -11.4295 C   0  0  0  0  0  0  0  0  0  0  0  0
  -23.8800   -0.5157  -12.0316 C   0  0  0  0  0  0  0  0  0  0  0  0
  -23.7678   -0.3838  -13.4284 C   0  0  0  0  0  0  0  0  0  0  0  0
  -24.8094   -0.9395  -14.2141 C   0  0  0  0  0  0  0  0  0  0  0  0
  -25.8981   -1.5781  -13.5921 C   0  0  0  0  0  0  0  0  0  0  0  0
  -22.7123    0.3532  -14.0092 N   0  0  0  0  0  0  0  0  0  0  0  0
  -22.4247    1.6527  -13.3961 C   0  0  0  0  0  0  0  0  0  0  0  0
  -21.6937    2.5006  -14.4229 C   0  0  0  0  0  0  0  0  0  0  0  0
  -20.3454    1.8866  -14.8671 C   0  0  0  0  0  0  0  0  0  0  0  0
  -20.5890    0.3938  -15.2476 C   0  0  0  0  0  0  0  0  0  0  0  0
  -21.4790   -0.4052  -14.2750 C   0  0  0  0  0  0  0  0  0  0  0  0
  -19.1908    2.0487  -13.9312 N   0  0  0  0  0  0  0  0  0  0  0  0
  -18.6138    3.4137  -13.8741 C   0  0  0  0  0  0  0  0  0  0  0  0
  -17.9578    3.8925  -15.1904 C   0  0  0  0  0  0  0  0  0  0  0  0
  -16.8829    3.0083  -15.6685 N   0  0  0  0  0  0  0  0  0  0  0  0
  -16.5070    3.3691  -17.0394 C   0  0  0  0  0  0  0  0  0  0  0  0
  -17.2602    1.5836  -15.5918 C   0  0  0  0  0  0  0  0  0  0  0  0
  -18.0475    1.1650  -14.3131 C   0  0  0  0  0  0  0  0  0  0  0  0
  -24.7170   -0.8257  -15.5855 O   0  0  0  0  0  0  0  0  0  0  0  0
  -25.9514   -0.8871  -16.2983 C   0  0  0  0  0  0  0  0  0  0  0  0
 34 35  1  0  0  0
 35 32  1  0  0  0
 32 29  1  0  0  0
 32 33  1  0  0  0
 29 30  2  0  0  0
 29 31  2  0  0  0
 29 23  1  0  0  0
 23 24  1  0  0  0
 23 28  2  0  0  0
 24 25  2  0  0  0
 25 26  1  0  0  0
 26 27  2  0  0  0
 27 28  1  0  0  0
 28 21  1  0  0  0
 21  1  1  0  0  0
 21 22  1  0  0  0
  1  2  1  0  0  0
  1  6  2  0  0  0
  2  3  2  0  0  0
  3 36  1  0  0  0
  3  4  1  0  0  0
 36 38  1  0  0  0
 36 37  1  0  0  0
 38 39  1  0  0  0
 38 43  2  0  0  0
 39 40  2  0  0  0
 40 41  1  0  0  0
 41 44  1  0  0  0
 41 42  2  0  0  0
 44 45  1  0  0  0
 44 49  1  0  0  0
 45 46  1  0  0  0
 46 47  1  0  0  0
 47 50  1  0  0  0
 47 48  1  0  0  0
 50 51  1  0  0  0
 50 56  1  0  0  0
 51 52  1  0  0  0
 52 53  1  0  0  0
 53 54  1  0  0  0
 53 55  1  0  0  0
 55 56  1  0  0  0
 48 49  1  0  0  0
 42 57  1  0  0  0
 42 43  1  0  0  0
 57 58  1  0  0  0
  4  5  2  0  0  0
  5  6  1  0  0  0
  6  7  1  0  0  0
  7  8  1  0  0  0
  7 10  1  0  0  0
  8  9  2  0  0  0
  8 11  1  0  0  0
 11 12  1  0  0  0
 11 16  2  0  0  0
 12 13  2  0  0  0
 13 17  1  0  0  0
 13 14  1  0  0  0
 17 18  1  0  0  0
 14 15  2  0  0  0
 15 16  1  0  0  0
 16 19  1  0  0  0
 19 20  1  0  0  0
M  END
> <minimizedAffinity>
-5.35785

$$$$
