CHEMBL474432


 34 37  0  0  0  0  0  0  0  0999 V2000
  -29.0498   -3.8517   -6.8655 C   0  0  0  0  0  0  0  0  0  0  0  0
  -28.2735   -3.6401   -7.9853 C   0  0  0  0  0  0  0  0  0  0  0  0
  -27.8737   -2.2689   -8.0813 C   0  0  0  0  0  0  0  0  0  0  0  0
  -28.2659   -1.5176   -6.9797 C   0  0  0  0  0  0  0  0  0  0  0  0
  -29.2026   -2.4665   -5.9079 S   0  0  0  0  0  0  0  0  0  0  0  0
  -29.7167   -9.0203   -7.6548 C   0  0  0  0  0  0  0  0  0  0  0  0
  -30.3932   -8.5090   -6.5278 C   0  0  0  0  0  0  0  0  0  0  0  0
  -30.2898   -7.1464   -6.2089 C   0  0  0  0  0  0  0  0  0  0  0  0
  -30.8822   -6.4435   -5.1966 N   0  0  0  0  0  0  0  0  0  0  0  0
  -30.4584   -5.2098   -5.3523 C   0  0  0  0  0  0  0  0  0  0  0  0
  -29.6208   -5.0547   -6.4422 N   0  0  0  0  0  0  0  0  0  0  0  0
  -29.4809   -6.3263   -6.9842 C   0  0  0  0  0  0  0  0  0  0  0  0
  -28.6937   -6.8508   -8.0163 C   0  0  0  0  0  0  0  0  0  0  0  0
  -28.8226   -8.2038   -8.3607 C   0  0  0  0  0  0  0  0  0  0  0  0
  -31.2643  -10.6635   -8.3498 C   0  0  0  0  0  0  0  0  0  0  0  0
  -29.9086  -10.3186   -8.0527 O   0  0  0  0  0  0  0  0  0  0  0  0
  -28.0085   -8.5014   -9.4192 O   0  0  0  0  0  0  0  0  0  0  0  0
  -26.8844   -9.3394   -9.2355 C   0  0  0  0  0  0  0  0  0  0  0  0
  -28.0243   -0.1256   -6.6308 C   0  0  0  0  0  0  0  0  0  0  0  0
  -28.4585    0.8490   -7.2248 O   0  0  0  0  0  0  0  0  0  0  0  0
  -27.2292    0.0184   -5.5355 O   0  0  0  0  0  0  0  0  0  0  0  0
  -26.9726   -0.8426   -5.1416 H   0  0  0  0  0  0  0  0  0  0  0  0
  -27.1273   -1.6928   -9.0640 O   0  0  0  0  0  0  0  0  0  0  0  0
  -27.6860   -1.8145  -10.3734 C   0  0  0  0  0  0  0  0  0  0  0  0
  -26.5476   -1.6901  -11.3625 C   0  0  0  0  0  0  0  0  0  0  0  0
  -25.2503   -1.4870  -10.8481 C   0  0  0  0  0  0  0  0  0  0  0  0
  -24.1489   -1.3443  -11.6935 C   0  0  0  0  0  0  0  0  0  0  0  0
  -24.3173   -1.4195  -13.0690 C   0  0  0  0  0  0  0  0  0  0  0  0
  -25.5852   -1.6531  -13.5971 C   0  0  0  0  0  0  0  0  0  0  0  0
  -26.7169   -1.7980  -12.7632 C   0  0  0  0  0  0  0  0  0  0  0  0
  -28.0401   -2.0484  -13.4600 C   0  0  0  0  0  0  0  0  0  0  0  0
  -29.1171   -1.4265  -12.9091 F   0  0  0  0  0  0  0  0  0  0  0  0
  -28.0119   -1.6403  -14.7605 F   0  0  0  0  0  0  0  0  0  0  0  0
  -28.3639   -3.3714  -13.4949 F   0  0  0  0  0  0  0  0  0  0  0  0
 15 16  1  0  0  0
 16  6  1  0  0  0
  6  7  1  0  0  0
  6 14  2  0  0  0
  7  8  2  0  0  0
  8  9  1  0  0  0
  8 12  1  0  0  0
  9 10  2  0  0  0
 10 11  1  0  0  0
 11  1  1  0  0  0
 11 12  1  0  0  0
  1  2  2  0  0  0
  1  5  1  0  0  0
  2  3  1  0  0  0
  3 23  1  0  0  0
  3  4  2  0  0  0
 23 24  1  0  0  0
 24 25  1  0  0  0
 25 26  1  0  0  0
 25 30  2  0  0  0
 26 27  2  0  0  0
 27 28  1  0  0  0
 28 29  2  0  0  0
 29 30  1  0  0  0
 30 31  1  0  0  0
 31 32  1  0  0  0
 31 33  1  0  0  0
 31 34  1  0  0  0
  4 19  1  0  0  0
  4  5  1  0  0  0
 19 20  2  0  0  0
 19 21  1  0  0  0
 21 22  1  0  0  0
 12 13  2  0  0  0
 13 14  1  0  0  0
 14 17  1  0  0  0
 17 18  1  0  0  0
M  END
> <minimizedAffinity>
-9.19209

$$$$
