CHEMBL4778826


 27 29  0  0  0  0  0  0  0  0999 V2000
  -30.6320   -7.4639   -6.7291 C   0  0  0  0  0  0  0  0  0  0  0  0
  -31.6889   -7.9471   -7.1217 O   0  0  0  0  0  0  0  0  0  0  0  0
  -29.4505   -8.2618   -6.3909 C   0  0  0  0  0  0  0  0  0  0  0  0
  -28.7344   -8.9680   -7.3213 N   0  0  0  0  0  0  0  0  0  0  0  0
  -27.6934   -9.5161   -6.7236 N   0  0  0  0  0  0  0  0  0  0  0  0
  -27.7730   -9.2736   -5.3910 N   0  0  0  0  0  0  0  0  0  0  0  0
  -28.8431   -8.4223   -5.1453 C   0  0  0  0  0  0  0  0  0  0  0  0
  -29.1483   -7.7392   -3.8626 C   0  0  0  0  0  0  0  0  0  0  0  0
  -26.8159   -9.8653   -4.5209 C   0  0  0  0  0  0  0  0  0  0  0  0
  -27.1402  -11.0820   -3.8944 C   0  0  0  0  0  0  0  0  0  0  0  0
  -26.2241  -11.7076   -3.0432 C   0  0  0  0  0  0  0  0  0  0  0  0
  -24.9990  -11.1007   -2.7871 C   0  0  0  0  0  0  0  0  0  0  0  0
  -23.8745  -11.8665   -1.7292 Cl  0  0  0  0  0  0  0  0  0  0  0  0
  -24.6808   -9.8775   -3.3701 C   0  0  0  0  0  0  0  0  0  0  0  0
  -25.5870   -9.2559   -4.2413 C   0  0  0  0  0  0  0  0  0  0  0  0
  -29.4528   -5.3352   -7.2375 C   0  0  0  0  0  0  0  0  0  0  0  0
  -30.4314   -5.9880   -6.5845 C   0  0  0  0  0  0  0  0  0  0  0  0
  -28.2916   -1.2278   -6.5437 C   0  0  0  0  0  0  0  0  0  0  0  0
  -29.1417   -1.8958   -5.6543 C   0  0  0  0  0  0  0  0  0  0  0  0
  -29.5374   -3.2180   -5.8861 C   0  0  0  0  0  0  0  0  0  0  0  0
  -29.1179   -3.9091   -7.0274 C   0  0  0  0  0  0  0  0  0  0  0  0
  -28.2788   -3.2350   -7.9261 C   0  0  0  0  0  0  0  0  0  0  0  0
  -27.8555   -1.9079   -7.6940 C   0  0  0  0  0  0  0  0  0  0  0  0
  -28.9144    1.0701   -6.6124 C   0  0  0  0  0  0  0  0  0  0  0  0
  -27.9233    0.0769   -6.3633 O   0  0  0  0  0  0  0  0  0  0  0  0
  -27.0468   -1.4135   -8.6887 O   0  0  0  0  0  0  0  0  0  0  0  0
  -27.1148   -2.0548   -9.9585 C   0  0  0  0  0  0  0  0  0  0  0  0
 24 25  1  0  0  0
 25 18  1  0  0  0
 18 19  1  0  0  0
 18 23  2  0  0  0
 19 20  2  0  0  0
 20 21  1  0  0  0
 21 16  1  0  0  0
 21 22  2  0  0  0
 16 17  2  0  0  0
 17  1  1  0  0  0
  1  2  2  0  0  0
  1  3  1  0  0  0
  3  4  1  0  0  0
  3  7  2  0  0  0
  4  5  2  0  0  0
  5  6  1  0  0  0
  6  9  1  0  0  0
  6  7  1  0  0  0
  9 10  1  0  0  0
  9 15  2  0  0  0
 10 11  2  0  0  0
 11 12  1  0  0  0
 12 13  1  0  0  0
 12 14  2  0  0  0
 14 15  1  0  0  0
  7  8  1  0  0  0
 22 23  1  0  0  0
 23 26  1  0  0  0
 26 27  1  0  0  0
M  END
> <minimizedAffinity>
-7.72243

$$$$
