CHEMBL3593283


 39 43  0  0  0  0  0  0  0  0999 V2000
  -20.2760    1.9248  -14.9720 C   0  0  0  0  0  0  0  0  0  0  0  0
  -20.1546    0.6576  -15.2963 N   0  0  0  0  0  0  0  0  0  0  0  0
  -21.2448   -0.0648  -14.9117 C   0  0  0  0  0  0  0  0  0  0  0  0
  -22.2086    0.6332  -14.2180 C   0  0  0  0  0  0  0  0  0  0  0  0
  -21.7058    2.2663  -14.0624 S   0  0  0  0  0  0  0  0  0  0  0  0
  -23.4426    0.1007  -13.6469 C   0  0  0  0  0  0  0  0  0  0  0  0
  -23.8393    0.5696  -12.3949 C   0  0  0  0  0  0  0  0  0  0  0  0
  -24.9630    0.0493  -11.7616 C   0  0  0  0  0  0  0  0  0  0  0  0
  -25.7338   -0.9628  -12.3398 C   0  0  0  0  0  0  0  0  0  0  0  0
  -25.3586   -1.4177  -13.6079 C   0  0  0  0  0  0  0  0  0  0  0  0
  -24.2220   -0.8929  -14.2533 C   0  0  0  0  0  0  0  0  0  0  0  0
  -26.8579   -1.5499  -11.6860 N   0  0  0  0  0  0  0  0  0  0  0  0
  -26.9110   -1.8237  -10.3340 C   0  0  0  0  0  0  0  0  0  0  0  0
  -25.9889   -1.5720   -9.5581 O   0  0  0  0  0  0  0  0  0  0  0  0
  -28.0819   -2.4299   -9.9100 N   0  0  0  0  0  0  0  0  0  0  0  0
  -27.6582   -1.7739  -12.2533 H   0  0  0  0  0  0  0  0  0  0  0  0
  -28.6231   -2.9333  -10.5990 H   0  0  0  0  0  0  0  0  0  0  0  0
  -28.3408   -2.7239   -8.5377 C   0  0  0  0  0  0  0  0  0  0  0  0
  -28.8245   -3.9720   -8.1147 C   0  0  0  0  0  0  0  0  0  0  0  0
  -29.1720   -4.2140   -6.7865 C   0  0  0  0  0  0  0  0  0  0  0  0
  -28.9977   -3.2165   -5.8402 C   0  0  0  0  0  0  0  0  0  0  0  0
  -28.4656   -1.9854   -6.2288 C   0  0  0  0  0  0  0  0  0  0  0  0
  -28.1314   -1.7402   -7.5697 C   0  0  0  0  0  0  0  0  0  0  0  0
  -19.4067    2.9030  -15.3247 N   0  0  0  0  0  0  0  0  0  0  0  0
  -19.7320    3.6905  -15.8683 H   0  0  0  0  0  0  0  0  0  0  0  0
  -15.2892    4.3757  -17.2591 C   0  0  0  0  0  0  0  0  0  0  0  0
  -16.0376    3.3928  -16.4136 C   0  0  0  0  0  0  0  0  0  0  0  0
  -17.3551    3.6247  -16.2109 N   0  0  0  0  0  0  0  0  0  0  0  0
  -18.0222    2.7203  -15.4795 C   0  0  0  0  0  0  0  0  0  0  0  0
  -17.3518    1.6569  -14.9209 C   0  0  0  0  0  0  0  0  0  0  0  0
  -16.0016    1.5014  -15.1433 C   0  0  0  0  0  0  0  0  0  0  0  0
  -15.3323    2.3513  -15.9248 N   0  0  0  0  0  0  0  0  0  0  0  0
  -15.4008    0.4094  -14.5199 N   0  0  0  0  0  0  0  0  0  0  0  0
  -13.9569    0.2324  -14.6474 C   0  0  0  0  0  0  0  0  0  0  0  0
  -13.6222   -1.2286  -14.2239 C   0  0  0  0  0  0  0  0  0  0  0  0
  -14.0887   -1.5555  -12.8503 N   0  0  0  0  0  0  0  0  0  0  0  0
  -13.8368   -2.9600  -12.5371 C   0  0  0  0  0  0  0  0  0  0  0  0
  -15.5355   -1.2559  -12.7283 C   0  0  0  0  0  0  0  0  0  0  0  0
  -15.8709    0.1932  -13.1392 C   0  0  0  0  0  0  0  0  0  0  0  0
 26 27  1  0  0  0
 27 28  1  0  0  0
 27 32  2  0  0  0
 28 29  2  0  0  0
 29 24  1  0  0  0
 29 30  1  0  0  0
 24  1  1  0  0  0
 24 25  1  0  0  0
  1  2  2  0  0  0
  1  5  1  0  0  0
  2  3  1  0  0  0
  3  4  2  0  0  0
  4  6  1  0  0  0
  4  5  1  0  0  0
  6  7  1  0  0  0
  6 11  2  0  0  0
  7  8  2  0  0  0
  8  9  1  0  0  0
  9 12  1  0  0  0
  9 10  2  0  0  0
 12 13  1  0  0  0
 12 16  1  0  0  0
 13 14  2  0  0  0
 13 15  1  0  0  0
 15 18  1  0  0  0
 15 17  1  0  0  0
 18 19  1  0  0  0
 18 23  2  0  0  0
 19 20  2  0  0  0
 20 21  1  0  0  0
 21 22  2  0  0  0
 22 23  1  0  0  0
 10 11  1  0  0  0
 30 31  2  0  0  0
 31 33  1  0  0  0
 31 32  1  0  0  0
 33 34  1  0  0  0
 33 39  1  0  0  0
 34 35  1  0  0  0
 35 36  1  0  0  0
 36 37  1  0  0  0
 36 38  1  0  0  0
 38 39  1  0  0  0
M  END
> <minimizedAffinity>
-11.12347

$$$$
