CHEMBL3896803


 26 29  0  0  0  0  0  0  0  0999 V2000
  -18.3832    2.3058  -15.4569 C   0  0  0  0  0  0  0  0  0  0  0  0
  -18.6142    0.9386  -15.2231 C   0  0  0  0  0  0  0  0  0  0  0  0
  -19.8419    0.4556  -14.7464 C   0  0  0  0  0  0  0  0  0  0  0  0
  -20.8715    1.3647  -14.4462 C   0  0  0  0  0  0  0  0  0  0  0  0
  -22.2062    1.2982  -13.9298 C   0  0  0  0  0  0  0  0  0  0  0  0
  -22.7626    2.5223  -13.8877 N   0  0  0  0  0  0  0  0  0  0  0  0
  -21.7991    3.3422  -14.3275 N   0  0  0  0  0  0  0  0  0  0  0  0
  -20.6404    2.7123  -14.6811 C   0  0  0  0  0  0  0  0  0  0  0  0
  -19.4310    3.2105  -15.1851 C   0  0  0  0  0  0  0  0  0  0  0  0
  -21.9968    4.3348  -14.3623 H   0  0  0  0  0  0  0  0  0  0  0  0
  -14.8261    2.3065  -16.8398 C   0  0  0  0  0  0  0  0  0  0  0  0
  -16.0695    1.8731  -16.3646 C   0  0  0  0  0  0  0  0  0  0  0  0
  -17.0820    2.7805  -15.9885 C   0  0  0  0  0  0  0  0  0  0  0  0
  -16.8071    4.1525  -16.1298 C   0  0  0  0  0  0  0  0  0  0  0  0
  -15.5805    4.6034  -16.6223 C   0  0  0  0  0  0  0  0  0  0  0  0
  -14.5972    3.6814  -16.9664 C   0  0  0  0  0  0  0  0  0  0  0  0
  -13.3880    4.1217  -17.4330 O   0  0  0  0  0  0  0  0  0  0  0  0
  -13.3860    5.0913  -17.4413 H   0  0  0  0  0  0  0  0  0  0  0  0
  -14.0749    0.4424  -18.1240 C   0  0  0  0  0  0  0  0  0  0  0  0
  -13.7924    1.4816  -17.1984 O   0  0  0  0  0  0  0  0  0  0  0  0
  -22.9537    0.1212  -13.4743 C   0  0  0  0  0  0  0  0  0  0  0  0
  -23.9574   -0.4555  -14.2649 C   0  0  0  0  0  0  0  0  0  0  0  0
  -24.6575   -1.5807  -13.8254 C   0  0  0  0  0  0  0  0  0  0  0  0
  -24.3476   -2.1542  -12.5967 C   0  0  0  0  0  0  0  0  0  0  0  0
  -23.3436   -1.6042  -11.8034 C   0  0  0  0  0  0  0  0  0  0  0  0
  -22.6516   -0.4711  -12.2380 C   0  0  0  0  0  0  0  0  0  0  0  0
 19 20  1  0  0  0
 20 11  1  0  0  0
 11 12  1  0  0  0
 11 16  2  0  0  0
 12 13  2  0  0  0
 13  1  1  0  0  0
 13 14  1  0  0  0
  1  2  1  0  0  0
  1  9  2  0  0  0
  2  3  2  0  0  0
  3  4  1  0  0  0
  4  5  1  0  0  0
  4  8  2  0  0  0
  5 21  1  0  0  0
  5  6  2  0  0  0
 21 22  1  0  0  0
 21 26  2  0  0  0
 22 23  2  0  0  0
 23 24  1  0  0  0
 24 25  2  0  0  0
 25 26  1  0  0  0
  6  7  1  0  0  0
  7  8  1  0  0  0
  7 10  1  0  0  0
  8  9  1  0  0  0
 14 15  2  0  0  0
 15 16  1  0  0  0
 16 17  1  0  0  0
 17 18  1  0  0  0
M  END
> <minimizedAffinity>
-10.38052

$$$$
