CHEMBL3220317


 41 43  0  0  0  0  0  0  0  0999 V2000
  -28.8631   -4.3368   -7.0768 C   0  0  0  0  0  0  0  0  0  0  0  0
  -28.7318   -3.6964   -8.3269 C   0  0  0  0  0  0  0  0  0  0  0  0
  -28.2624   -2.3972   -8.5119 C   0  0  0  0  0  0  0  0  0  0  0  0
  -27.9468   -1.6606   -7.3766 C   0  0  0  0  0  0  0  0  0  0  0  0
  -28.0978   -2.2324   -6.0968 C   0  0  0  0  0  0  0  0  0  0  0  0
  -28.5337   -3.5726   -5.9359 C   0  0  0  0  0  0  0  0  0  0  0  0
  -29.2491   -8.0470   -8.0166 C   0  0  0  0  0  0  0  0  0  0  0  0
  -28.7075   -6.7686   -7.8105 C   0  0  0  0  0  0  0  0  0  0  0  0
  -29.3853   -5.7464   -7.0929 C   0  0  0  0  0  0  0  0  0  0  0  0
  -30.6197   -6.0932   -6.5258 C   0  0  0  0  0  0  0  0  0  0  0  0
  -31.1346   -7.3902   -6.6507 C   0  0  0  0  0  0  0  0  0  0  0  0
  -30.4498   -8.3754   -7.3838 C   0  0  0  0  0  0  0  0  0  0  0  0
  -31.0413   -9.7541   -7.4209 C   0  0  0  0  0  0  0  0  0  0  0  0
  -30.4734  -10.8257   -6.5051 C   0  0  0  0  0  0  0  0  0  0  0  0
  -32.0666   -9.9785   -8.1961 N   0  0  0  0  0  0  0  0  0  0  0  0
  -32.5195  -11.2981   -8.0773 O   0  0  0  0  0  0  0  0  0  0  0  0
  -33.2818  -11.3129   -8.6833 H   0  0  0  0  0  0  0  0  0  0  0  0
  -27.3482   -8.8499   -9.2353 C   0  0  0  0  0  0  0  0  0  0  0  0
  -28.7263   -8.9573   -8.8977 O   0  0  0  0  0  0  0  0  0  0  0  0
  -28.0785   -1.8341   -9.8044 N   0  0  0  0  0  0  0  0  0  0  0  0
  -26.8526   -1.6625  -10.4312 C   0  0  0  0  0  0  0  0  0  0  0  0
  -25.7703   -2.0274   -9.9839 O   0  0  0  0  0  0  0  0  0  0  0  0
  -26.9499   -0.9716  -11.6339 N   0  0  0  0  0  0  0  0  0  0  0  0
  -28.9047   -1.6170  -10.3431 H   0  0  0  0  0  0  0  0  0  0  0  0
  -27.6146   -0.2124  -11.6208 H   0  0  0  0  0  0  0  0  0  0  0  0
  -25.7616   -0.7515  -12.3802 C   0  0  0  0  0  0  0  0  0  0  0  0
  -25.4703   -1.5310  -13.5063 C   0  0  0  0  0  0  0  0  0  0  0  0
  -24.2357   -1.4245  -14.1477 C   0  0  0  0  0  0  0  0  0  0  0  0
  -23.2785   -0.5266  -13.6751 C   0  0  0  0  0  0  0  0  0  0  0  0
  -23.5828    0.2750  -12.5705 C   0  0  0  0  0  0  0  0  0  0  0  0
  -24.8318    0.1876  -11.9404 C   0  0  0  0  0  0  0  0  0  0  0  0
  -22.0104   -0.3959  -14.1810 O   0  0  0  0  0  0  0  0  0  0  0  0
  -21.5441    0.9560  -14.2865 C   0  0  0  0  0  0  0  0  0  0  0  0
  -20.2312    0.9898  -15.0877 C   0  0  0  0  0  0  0  0  0  0  0  0
  -19.2237    1.9198  -14.5344 N   0  0  0  0  0  0  0  0  0  0  0  0
  -18.0426    2.0252  -15.3935 C   0  0  0  0  0  0  0  0  0  0  0  0
  -19.8122    3.2473  -14.3403 C   0  0  0  0  0  0  0  0  0  0  0  0
  -27.7074   -1.5162   -4.9891 O   0  0  0  0  0  0  0  0  0  0  0  0
  -28.0348   -0.1281   -5.0455 C   0  0  0  0  0  0  0  0  0  0  0  0
  -28.6088   -4.2268   -4.7292 O   0  0  0  0  0  0  0  0  0  0  0  0
  -27.4098   -4.7825   -4.2024 C   0  0  0  0  0  0  0  0  0  0  0  0
 18 19  1  0  0  0
 19  7  1  0  0  0
  7  8  1  0  0  0
  7 12  2  0  0  0
  8  9  2  0  0  0
  9  1  1  0  0  0
  9 10  1  0  0  0
  1  2  1  0  0  0
  1  6  2  0  0  0
  2  3  2  0  0  0
  3 20  1  0  0  0
  3  4  1  0  0  0
 20 21  1  0  0  0
 20 24  1  0  0  0
 21 22  2  0  0  0
 21 23  1  0  0  0
 23 26  1  0  0  0
 23 25  1  0  0  0
 26 27  1  0  0  0
 26 31  2  0  0  0
 27 28  2  0  0  0
 28 29  1  0  0  0
 29 32  1  0  0  0
 29 30  2  0  0  0
 32 33  1  0  0  0
 33 34  1  0  0  0
 34 35  1  0  0  0
 35 36  1  0  0  0
 35 37  1  0  0  0
 30 31  1  0  0  0
  4  5  2  0  0  0
  5 38  1  0  0  0
  5  6  1  0  0  0
 38 39  1  0  0  0
  6 40  1  0  0  0
 40 41  1  0  0  0
 10 11  2  0  0  0
 11 12  1  0  0  0
 12 13  1  0  0  0
 13 14  1  0  0  0
 13 15  2  0  0  0
 15 16  1  0  0  0
 16 17  1  0  0  0
M  END
> <minimizedAffinity>
-10.06837

$$$$
