CHEMBL4165320


 35 37  0  0  0  0  0  0  0  0999 V2000
  -22.9718    0.1414  -13.2707 C   0  0  0  0  0  0  0  0  0  0  0  0
  -24.2228   -0.1031  -13.8474 C   0  0  0  0  0  0  0  0  0  0  0  0
  -25.1674   -0.9314  -13.2348 C   0  0  0  0  0  0  0  0  0  0  0  0
  -24.8958   -1.5740  -12.0280 C   0  0  0  0  0  0  0  0  0  0  0  0
  -23.6348   -1.3760  -11.4548 C   0  0  0  0  0  0  0  0  0  0  0  0
  -22.6882   -0.5354  -12.0682 C   0  0  0  0  0  0  0  0  0  0  0  0
  -19.9319    1.3635  -14.8818 C   0  0  0  0  0  0  0  0  0  0  0  0
  -20.1709    2.7065  -15.1329 C   0  0  0  0  0  0  0  0  0  0  0  0
  -21.4003    3.2413  -14.7722 C   0  0  0  0  0  0  0  0  0  0  0  0
  -22.3343    2.4283  -14.1396 C   0  0  0  0  0  0  0  0  0  0  0  0
  -22.0352    1.0845  -13.9284 C   0  0  0  0  0  0  0  0  0  0  0  0
  -20.8569    0.5450  -14.3511 N   0  0  0  0  0  0  0  0  0  0  0  0
  -17.5742    0.9574  -14.4314 C   0  0  0  0  0  0  0  0  0  0  0  0
  -17.5042    1.6236  -13.4070 O   0  0  0  0  0  0  0  0  0  0  0  0
  -18.7059    0.7673  -15.1927 N   0  0  0  0  0  0  0  0  0  0  0  0
  -18.7863   -0.0696  -15.7517 H   0  0  0  0  0  0  0  0  0  0  0  0
  -15.5021   -0.3028  -14.0785 C   0  0  0  0  0  0  0  0  0  0  0  0
  -16.4010    0.1938  -14.9391 C   0  0  0  0  0  0  0  0  0  0  0  0
  -25.8441   -2.3711  -11.3452 N   0  0  0  0  0  0  0  0  0  0  0  0
  -26.4953   -2.0186  -10.1740 C   0  0  0  0  0  0  0  0  0  0  0  0
  -26.4410   -0.9220   -9.6382 O   0  0  0  0  0  0  0  0  0  0  0  0
  -27.1958   -3.0874   -9.6218 N   0  0  0  0  0  0  0  0  0  0  0  0
  -26.1577   -3.2133  -11.8054 H   0  0  0  0  0  0  0  0  0  0  0  0
  -26.7686   -3.9891   -9.7811 H   0  0  0  0  0  0  0  0  0  0  0  0
  -27.8999   -2.9230   -8.4092 C   0  0  0  0  0  0  0  0  0  0  0  0
  -28.6087   -4.0027   -7.8900 C   0  0  0  0  0  0  0  0  0  0  0  0
  -29.2460   -3.8812   -6.6524 C   0  0  0  0  0  0  0  0  0  0  0  0
  -29.2215   -2.6714   -5.9416 C   0  0  0  0  0  0  0  0  0  0  0  0
  -30.0612   -2.6535   -4.4349 Cl  0  0  0  0  0  0  0  0  0  0  0  0
  -28.5445   -1.5652   -6.4578 C   0  0  0  0  0  0  0  0  0  0  0  0
  -27.8864   -1.7129   -7.7006 C   0  0  0  0  0  0  0  0  0  0  0  0
  -28.4474   -0.2201   -5.7831 C   0  0  0  0  0  0  0  0  0  0  0  0
  -29.6214    0.3587   -5.4179 F   0  0  0  0  0  0  0  0  0  0  0  0
  -27.7002   -0.2692   -4.6428 F   0  0  0  0  0  0  0  0  0  0  0  0
  -27.8295    0.6998   -6.5812 F   0  0  0  0  0  0  0  0  0  0  0  0
 17 18  2  0  0  0
 18 13  1  0  0  0
 13 14  2  0  0  0
 13 15  1  0  0  0
 15  7  1  0  0  0
 15 16  1  0  0  0
  7  8  1  0  0  0
  7 12  2  0  0  0
  8  9  2  0  0  0
  9 10  1  0  0  0
 10 11  2  0  0  0
 11  1  1  0  0  0
 11 12  1  0  0  0
  1  2  1  0  0  0
  1  6  2  0  0  0
  2  3  2  0  0  0
  3  4  1  0  0  0
  4 19  1  0  0  0
  4  5  2  0  0  0
 19 20  1  0  0  0
 19 23  1  0  0  0
 20 21  2  0  0  0
 20 22  1  0  0  0
 22 25  1  0  0  0
 22 24  1  0  0  0
 25 26  1  0  0  0
 25 31  2  0  0  0
 26 27  2  0  0  0
 27 28  1  0  0  0
 28 29  1  0  0  0
 28 30  2  0  0  0
 30 32  1  0  0  0
 30 31  1  0  0  0
 32 33  1  0  0  0
 32 34  1  0  0  0
 32 35  1  0  0  0
  5  6  1  0  0  0
M  END
> <minimizedAffinity>
-11.08028

$$$$
