CHEMBL4468880


 42 46  0  0  0  0  0  0  0  0999 V2000
  -16.7964    1.0655  -15.0289 C   0  0  0  0  0  0  0  0  0  0  0  0
  -16.9367    0.6834  -13.6935 C   0  0  0  0  0  0  0  0  0  0  0  0
  -15.8921    0.0175  -13.0518 C   0  0  0  0  0  0  0  0  0  0  0  0
  -14.7300   -0.3576  -13.7520 C   0  0  0  0  0  0  0  0  0  0  0  0
  -14.6160   -0.0117  -15.0948 C   0  0  0  0  0  0  0  0  0  0  0  0
  -15.6403    0.6996  -15.7182 C   0  0  0  0  0  0  0  0  0  0  0  0
  -15.5102    1.0081  -17.0170 F   0  0  0  0  0  0  0  0  0  0  0  0
  -13.8357   -1.2305  -13.1016 N   0  0  0  0  0  0  0  0  0  0  0  0
  -13.0510   -1.4005  -13.7354 H   0  0  0  0  0  0  0  0  0  0  0  0
  -14.0886   -2.4994  -12.5296 C   0  0  0  0  0  0  0  0  0  0  0  0
  -14.7426   -2.3656  -11.3289 N   0  0  0  0  0  0  0  0  0  0  0  0
  -15.7745   -3.1871  -11.0341 C   0  0  0  0  0  0  0  0  0  0  0  0
  -16.3025   -4.0436  -11.9506 C   0  0  0  0  0  0  0  0  0  0  0  0
  -15.6051   -4.1779  -13.1363 C   0  0  0  0  0  0  0  0  0  0  0  0
  -16.1520   -5.0326  -14.1091 N   0  0  0  0  0  0  0  0  0  0  0  0
  -15.2346   -5.9719  -14.4769 C   0  0  0  0  0  0  0  0  0  0  0  0
  -13.9511   -5.7311  -14.8033 C   0  0  0  0  0  0  0  0  0  0  0  0
  -13.4947   -4.2759  -14.4622 C   0  0  0  0  0  0  0  0  0  0  0  0
  -12.4910   -3.7602  -14.9493 O   0  0  0  0  0  0  0  0  0  0  0  0
  -14.3663   -3.5742  -13.3771 C   0  0  0  0  0  0  0  0  0  0  0  0
  -16.2400   -4.4331  -14.9483 H   0  0  0  0  0  0  0  0  0  0  0  0
  -13.4308   -6.7950  -15.7227 C   0  0  0  0  0  0  0  0  0  0  0  0
  -13.6658   -6.7677  -17.0992 C   0  0  0  0  0  0  0  0  0  0  0  0
  -13.6977   -7.9709  -17.8338 C   0  0  0  0  0  0  0  0  0  0  0  0
  -13.5111   -9.1984  -17.2006 C   0  0  0  0  0  0  0  0  0  0  0  0
  -13.6888  -10.3417  -17.8754 F   0  0  0  0  0  0  0  0  0  0  0  0
  -13.1585   -9.2486  -15.8691 C   0  0  0  0  0  0  0  0  0  0  0  0
  -13.0331   -8.0502  -15.1666 C   0  0  0  0  0  0  0  0  0  0  0  0
  -17.7621    1.7419  -15.7433 O   0  0  0  0  0  0  0  0  0  0  0  0
  -21.1544    1.1290  -14.4968 C   0  0  0  0  0  0  0  0  0  0  0  0
  -19.8732    0.8452  -14.9408 C   0  0  0  0  0  0  0  0  0  0  0  0
  -19.0000    1.9046  -15.1951 C   0  0  0  0  0  0  0  0  0  0  0  0
  -19.3887    3.1974  -14.8667 C   0  0  0  0  0  0  0  0  0  0  0  0
  -20.6571    3.3838  -14.3610 C   0  0  0  0  0  0  0  0  0  0  0  0
  -21.5472    2.3851  -14.1956 N   0  0  0  0  0  0  0  0  0  0  0  0
  -22.5595   -0.4260  -13.1922 C   0  0  0  0  0  0  0  0  0  0  0  0
  -22.3630    0.0526  -12.0800 O   0  0  0  0  0  0  0  0  0  0  0  0
  -22.0696    0.0661  -14.3890 N   0  0  0  0  0  0  0  0  0  0  0  0
  -22.4908   -0.2647  -15.2443 H   0  0  0  0  0  0  0  0  0  0  0  0
  -23.7116   -2.3523  -12.0434 C   0  0  0  0  0  0  0  0  0  0  0  0
  -23.4719   -1.6447  -13.3763 C   0  0  0  0  0  0  0  0  0  0  0  0
  -24.8074   -1.2142  -13.9873 C   0  0  0  0  0  0  0  0  0  0  0  0
 40 41  1  0  0  0
 41 42  1  0  0  0
 41 36  1  0  0  0
 36 37  2  0  0  0
 36 38  1  0  0  0
 38 30  1  0  0  0
 38 39  1  0  0  0
 30 31  1  0  0  0
 30 35  2  0  0  0
 31 32  2  0  0  0
 32 29  1  0  0  0
 32 33  1  0  0  0
 29  1  1  0  0  0
  1  2  1  0  0  0
  1  6  2  0  0  0
  2  3  2  0  0  0
  3  4  1  0  0  0
  4  8  1  0  0  0
  4  5  2  0  0  0
  8 10  1  0  0  0
  8  9  1  0  0  0
 10 11  1  0  0  0
 10 20  2  0  0  0
 11 12  2  0  0  0
 12 13  1  0  0  0
 13 14  2  0  0  0
 14 15  1  0  0  0
 14 20  1  0  0  0
 15 16  1  0  0  0
 15 21  1  0  0  0
 16 17  2  0  0  0
 17 22  1  0  0  0
 17 18  1  0  0  0
 22 23  1  0  0  0
 22 28  2  0  0  0
 23 24  2  0  0  0
 24 25  1  0  0  0
 25 26  1  0  0  0
 25 27  2  0  0  0
 27 28  1  0  0  0
 18 19  2  0  0  0
 18 20  1  0  0  0
  5  6  1  0  0  0
  6  7  1  0  0  0
 33 34  2  0  0  0
 34 35  1  0  0  0
M  END
> <minimizedAffinity>
-10.27786

$$$$
