CHEMBL1968406


 34 38  0  0  0  0  0  0  0  0999 V2000
  -29.9686   -6.1211   -4.5181 C   0  0  0  0  0  0  0  0  0  0  0  0
  -30.4164   -5.2809   -3.4865 C   0  0  0  0  0  0  0  0  0  0  0  0
  -30.5322   -3.7890   -3.6400 C   0  0  0  0  0  0  0  0  0  0  0  0
  -30.1618   -3.0720   -4.8200 C   0  0  0  0  0  0  0  0  0  0  0  0
  -29.6983   -3.9998   -5.8068 C   0  0  0  0  0  0  0  0  0  0  0  0
  -29.7226   -5.4372   -5.6955 C   0  0  0  0  0  0  0  0  0  0  0  0
  -28.8304   -3.5734   -6.9552 C   0  0  0  0  0  0  0  0  0  0  0  0
  -27.9498   -2.3936   -6.6462 C   0  0  0  0  0  0  0  0  0  0  0  0
  -28.2836   -1.7029   -5.3598 C   0  0  0  0  0  0  0  0  0  0  0  0
  -27.4115   -0.2699   -5.0452 S   0  0  0  0  0  0  0  0  0  0  0  0
  -28.6316    0.4003   -6.0357 C   0  0  0  0  0  0  0  0  0  0  0  0
  -28.3440    1.3358   -6.9522 N   0  0  0  0  0  0  0  0  0  0  0  0
  -29.4208    1.9936   -7.3253 C   0  0  0  0  0  0  0  0  0  0  0  0
  -30.5943    1.9282   -6.6854 N   0  0  0  0  0  0  0  0  0  0  0  0
  -30.7637    1.0238   -5.6573 C   0  0  0  0  0  0  0  0  0  0  0  0
  -31.3243    1.6893   -4.5521 N   0  0  0  0  0  0  0  0  0  0  0  0
  -29.8786   -0.1060   -5.5739 C   0  0  0  0  0  0  0  0  0  0  0  0
  -29.5872   -1.5484   -4.8576 C   0  0  0  0  0  0  0  0  0  0  0  0
  -31.4105    2.6626   -4.8451 H   0  0  0  0  0  0  0  0  0  0  0  0
  -32.2275    1.3306   -4.3001 H   0  0  0  0  0  0  0  0  0  0  0  0
  -28.4906   -9.5979   -4.8179 N   0  0  0  0  0  0  0  0  0  0  0  0
  -28.3684   -8.1889   -4.6573 C   0  0  0  0  0  0  0  0  0  0  0  0
  -27.3032   -7.5848   -4.6060 O   0  0  0  0  0  0  0  0  0  0  0  0
  -29.6071   -7.5299   -4.5632 N   0  0  0  0  0  0  0  0  0  0  0  0
  -29.4009   -9.9501   -5.1733 H   0  0  0  0  0  0  0  0  0  0  0  0
  -30.3893   -8.1675   -4.5254 H   0  0  0  0  0  0  0  0  0  0  0  0
  -25.4672  -11.8162   -5.6946 C   0  0  0  0  0  0  0  0  0  0  0  0
  -25.3160  -12.4659   -4.4634 C   0  0  0  0  0  0  0  0  0  0  0  0
  -26.1966  -12.2161   -3.4299 C   0  0  0  0  0  0  0  0  0  0  0  0
  -27.2474  -11.2978   -3.5743 C   0  0  0  0  0  0  0  0  0  0  0  0
  -27.4412  -10.5674   -4.7296 C   0  0  0  0  0  0  0  0  0  0  0  0
  -26.5386  -10.8670   -5.8299 C   0  0  0  0  0  0  0  0  0  0  0  0
  -23.1977  -11.3662   -6.9705 C   0  0  0  0  0  0  0  0  0  0  0  0
  -24.4220  -12.2266   -6.7283 C   0  0  0  0  0  0  0  0  0  0  0  0
 33 34  1  0  0  0
 34 27  1  0  0  0
 27 28  1  0  0  0
 27 32  2  0  0  0
 28 29  2  0  0  0
 29 30  1  0  0  0
 30 31  2  0  0  0
 31 21  1  0  0  0
 31 32  1  0  0  0
 21 22  1  0  0  0
 21 25  1  0  0  0
 22 23  2  0  0  0
 22 24  1  0  0  0
 24  1  1  0  0  0
 24 26  1  0  0  0
  1  2  1  0  0  0
  1  6  2  0  0  0
  2  3  2  0  0  0
  3  4  1  0  0  0
  4  5  2  0  0  0
  4 18  1  0  0  0
  5  6  1  0  0  0
  5  7  1  0  0  0
  7  8  1  0  0  0
  8  9  1  0  0  0
  9 10  1  0  0  0
  9 18  2  0  0  0
 10 11  1  0  0  0
 11 12  1  0  0  0
 11 17  2  0  0  0
 12 13  2  0  0  0
 13 14  1  0  0  0
 14 15  2  0  0  0
 15 16  1  0  0  0
 15 17  1  0  0  0
 16 19  1  0  0  0
 16 20  1  0  0  0
 17 18  1  0  0  0
M  END
> <minimizedAffinity>
-6.20161

$$$$
