CHEMBL327029


 22 25  0  0  0  0  0  0  0  0999 V2000
  -29.1121   -5.6661   -4.2627 O   0  0  0  0  0  0  0  0  0  0  0  0
  -29.6791   -5.8537   -5.3407 C   0  0  0  0  0  0  0  0  0  0  0  0
  -30.8424   -6.8042   -5.4082 C   0  0  0  0  0  0  0  0  0  0  0  0
  -31.2855   -7.1983   -6.6142 C   0  0  0  0  0  0  0  0  0  0  0  0
  -30.2536   -7.9417   -7.3798 C   0  0  0  0  0  0  0  0  0  0  0  0
  -30.3497   -9.3310   -7.5037 C   0  0  0  0  0  0  0  0  0  0  0  0
  -29.3558  -10.0322   -8.1849 C   0  0  0  0  0  0  0  0  0  0  0  0
  -28.2809   -9.3494   -8.7536 C   0  0  0  0  0  0  0  0  0  0  0  0
  -28.1802   -7.9598   -8.6330 C   0  0  0  0  0  0  0  0  0  0  0  0
  -29.1520   -7.2426   -7.9239 C   0  0  0  0  0  0  0  0  0  0  0  0
  -28.9950   -5.7819   -7.7401 C   0  0  0  0  0  0  0  0  0  0  0  0
  -29.2307   -5.1325   -6.5831 C   0  0  0  0  0  0  0  0  0  0  0  0
  -28.9866   -3.7302   -6.4843 C   0  0  0  0  0  0  0  0  0  0  0  0
  -28.1683   -2.9338   -7.1495 N   0  0  0  0  0  0  0  0  0  0  0  0
  -28.4086   -1.6642   -6.6688 C   0  0  0  0  0  0  0  0  0  0  0  0
  -27.8553   -0.4317   -7.0472 C   0  0  0  0  0  0  0  0  0  0  0  0
  -28.2651    0.7273   -6.3708 C   0  0  0  0  0  0  0  0  0  0  0  0
  -29.2079    0.6621   -5.3409 C   0  0  0  0  0  0  0  0  0  0  0  0
  -29.7849   -0.5545   -4.9627 C   0  0  0  0  0  0  0  0  0  0  0  0
  -29.3580   -1.6885   -5.6550 C   0  0  0  0  0  0  0  0  0  0  0  0
  -29.7108   -3.0059   -5.5612 N   0  0  0  0  0  0  0  0  0  0  0  0
  -30.4097   -3.3989   -4.9404 H   0  0  0  0  0  0  0  0  0  0  0  0
  1  2  2  0  0  0
  2  3  1  0  0  0
  2 12  1  0  0  0
  3  4  2  0  0  0
  4  5  1  0  0  0
  5  6  1  0  0  0
  5 10  2  0  0  0
  6  7  2  0  0  0
  7  8  1  0  0  0
  8  9  2  0  0  0
  9 10  1  0  0  0
 10 11  1  0  0  0
 11 12  2  0  0  0
 12 13  1  0  0  0
 13 14  2  0  0  0
 13 21  1  0  0  0
 14 15  1  0  0  0
 15 16  1  0  0  0
 15 20  2  0  0  0
 16 17  2  0  0  0
 17 18  1  0  0  0
 18 19  2  0  0  0
 19 20  1  0  0  0
 20 21  1  0  0  0
 21 22  1  0  0  0
M  END
> <minimizedAffinity>
-8.37614

$$$$
