CHEMBL478402


 32 35  0  0  0  0  0  0  0  0999 V2000
  -29.1435   -7.1902   -5.1787 C   0  0  0  0  0  0  0  0  0  0  0  0
  -29.6710   -8.2819   -5.8464 C   0  0  0  0  0  0  0  0  0  0  0  0
  -28.8770   -9.3946   -5.9434 C   0  0  0  0  0  0  0  0  0  0  0  0
  -27.6379   -9.4551   -5.4511 N   0  0  0  0  0  0  0  0  0  0  0  0
  -27.1721   -8.3666   -4.8261 C   0  0  0  0  0  0  0  0  0  0  0  0
  -27.8974   -7.2532   -4.6545 N   0  0  0  0  0  0  0  0  0  0  0  0
  -31.2154   -6.1887   -4.3562 C   0  0  0  0  0  0  0  0  0  0  0  0
  -29.9082   -6.0084   -4.9953 N   0  0  0  0  0  0  0  0  0  0  0  0
  -29.5170   -4.7044   -5.4143 C   0  0  0  0  0  0  0  0  0  0  0  0
  -28.9957   -4.5449   -6.7596 C   0  0  0  0  0  0  0  0  0  0  0  0
  -28.5233   -3.3458   -7.3349 C   0  0  0  0  0  0  0  0  0  0  0  0
  -28.6091   -2.3120   -6.4224 C   0  0  0  0  0  0  0  0  0  0  0  0
  -28.2091   -1.0265   -6.6508 C   0  0  0  0  0  0  0  0  0  0  0  0
  -28.4733   -0.3763   -5.4810 N   0  0  0  0  0  0  0  0  0  0  0  0
  -28.2154    1.0155   -5.2011 C   0  0  0  0  0  0  0  0  0  0  0  0
  -29.0241   -1.1516   -4.5213 N   0  0  0  0  0  0  0  0  0  0  0  0
  -29.1162   -2.3722   -5.0803 C   0  0  0  0  0  0  0  0  0  0  0  0
  -29.6008   -3.5812   -4.5470 C   0  0  0  0  0  0  0  0  0  0  0  0
  -25.8756   -8.3548   -4.3035 N   0  0  0  0  0  0  0  0  0  0  0  0
  -25.5135   -7.4117   -4.3361 H   0  0  0  0  0  0  0  0  0  0  0  0
  -24.9374   -9.3925   -4.1807 C   0  0  0  0  0  0  0  0  0  0  0  0
  -24.7618  -10.1253   -2.9963 C   0  0  0  0  0  0  0  0  0  0  0  0
  -23.7932  -11.1257   -2.8780 C   0  0  0  0  0  0  0  0  0  0  0  0
  -22.9699  -11.4204   -3.9545 C   0  0  0  0  0  0  0  0  0  0  0  0
  -23.1297  -10.7047   -5.1413 C   0  0  0  0  0  0  0  0  0  0  0  0
  -24.0813   -9.6784   -5.2518 C   0  0  0  0  0  0  0  0  0  0  0  0
  -22.1195  -11.1149   -6.5351 S   0  0  0  0  0  0  0  0  0  0  0  0
  -21.4150   -9.6244   -6.8438 N   0  0  0  0  0  0  0  0  0  0  0  0
  -21.0632  -11.9947   -6.0951 O   0  0  0  0  0  0  0  0  0  0  0  0
  -22.9807  -11.4158   -7.6543 O   0  0  0  0  0  0  0  0  0  0  0  0
  -20.6605   -9.3918   -6.2026 H   0  0  0  0  0  0  0  0  0  0  0  0
  -22.0769   -8.8896   -7.0808 H   0  0  0  0  0  0  0  0  0  0  0  0
  7  8  1  0  0  0
  8  9  1  0  0  0
  8  1  1  0  0  0
  9 10  1  0  0  0
  9 18  2  0  0  0
 10 11  2  0  0  0
 11 12  1  0  0  0
 12 13  2  0  0  0
 12 17  1  0  0  0
 13 14  1  0  0  0
 14 15  1  0  0  0
 14 16  1  0  0  0
 16 17  2  0  0  0
 17 18  1  0  0  0
  1  2  1  0  0  0
  1  6  2  0  0  0
  2  3  2  0  0  0
  3  4  1  0  0  0
  4  5  2  0  0  0
  5 19  1  0  0  0
  5  6  1  0  0  0
 19 21  1  0  0  0
 19 20  1  0  0  0
 21 22  1  0  0  0
 21 26  2  0  0  0
 22 23  2  0  0  0
 23 24  1  0  0  0
 24 25  2  0  0  0
 25 27  1  0  0  0
 25 26  1  0  0  0
 27 28  1  0  0  0
 27 29  2  0  0  0
 27 30  2  0  0  0
 28 31  1  0  0  0
 28 32  1  0  0  0
M  END
> <minimizedAffinity>
-8.86587

$$$$
