CHEMBL1269716


 21 23  0  0  0  0  0  0  0  0999 V2000
  -22.7017    2.4489  -13.9648 O   0  0  0  0  0  0  0  0  0  0  0  0
  -21.9041    1.5593  -14.2330 C   0  0  0  0  0  0  0  0  0  0  0  0
  -22.1530    0.1981  -14.1952 N   0  0  0  0  0  0  0  0  0  0  0  0
  -21.3616   -0.4306  -14.2438 H   0  0  0  0  0  0  0  0  0  0  0  0
  -23.3955   -0.3916  -13.8726 C   0  0  0  0  0  0  0  0  0  0  0  0
  -24.3387   -0.8049  -14.8053 C   0  0  0  0  0  0  0  0  0  0  0  0
  -25.5462   -1.3359  -14.4875 N   0  0  0  0  0  0  0  0  0  0  0  0
  -25.8630   -1.4488  -13.1901 C   0  0  0  0  0  0  0  0  0  0  0  0
  -27.1132   -1.9368  -12.8415 C   0  0  0  0  0  0  0  0  0  0  0  0
  -27.5097   -2.0499  -11.5071 C   0  0  0  0  0  0  0  0  0  0  0  0
  -26.6343   -1.6797  -10.4924 C   0  0  0  0  0  0  0  0  0  0  0  0
  -25.3661   -1.2000  -10.8147 C   0  0  0  0  0  0  0  0  0  0  0  0
  -24.9741   -1.0764  -12.1616 C   0  0  0  0  0  0  0  0  0  0  0  0
  -23.7172   -0.5656  -12.5262 C   0  0  0  0  0  0  0  0  0  0  0  0
  -20.5157    1.9463  -14.5622 C   0  0  0  0  0  0  0  0  0  0  0  0
  -20.2853    3.2092  -15.0987 C   0  0  0  0  0  0  0  0  0  0  0  0
  -19.0540    3.6728  -15.4263 N   0  0  0  0  0  0  0  0  0  0  0  0
  -18.0152    2.8277  -15.2295 C   0  0  0  0  0  0  0  0  0  0  0  0
  -18.1560    1.5443  -14.7202 C   0  0  0  0  0  0  0  0  0  0  0  0
  -16.6539    0.4284  -14.4922 Br  0  0  0  0  0  0  0  0  0  0  0  0
  -19.4272    1.0904  -14.3808 C   0  0  0  0  0  0  0  0  0  0  0  0
  1  2  2  0  0  0
  2  3  1  0  0  0
  2 15  1  0  0  0
  3  5  1  0  0  0
  3  4  1  0  0  0
  5  6  1  0  0  0
  5 14  2  0  0  0
  6  7  2  0  0  0
  7  8  1  0  0  0
  8  9  1  0  0  0
  8 13  2  0  0  0
  9 10  2  0  0  0
 10 11  1  0  0  0
 11 12  2  0  0  0
 12 13  1  0  0  0
 13 14  1  0  0  0
 15 16  1  0  0  0
 15 21  2  0  0  0
 16 17  2  0  0  0
 17 18  1  0  0  0
 18 19  2  0  0  0
 19 20  1  0  0  0
 19 21  1  0  0  0
M  END
> <minimizedAffinity>
-8.45293

$$$$
