CHEMBL3966022


 38 42  0  0  0  0  0  0  0  0999 V2000
  -13.4343   -3.5549  -13.7053 C   0  0  0  0  0  0  0  0  0  0  0  0
  -12.0920   -3.2739  -13.7337 C   0  0  0  0  0  0  0  0  0  0  0  0
  -11.6854   -2.0019  -13.4988 C   0  0  0  0  0  0  0  0  0  0  0  0
  -12.5129   -0.9369  -13.3607 C   0  0  0  0  0  0  0  0  0  0  0  0
  -11.7338   -0.0805  -12.7774 N   0  0  0  0  0  0  0  0  0  0  0  0
  -11.8282    1.1696  -13.1208 C   0  0  0  0  0  0  0  0  0  0  0  0
  -12.8885    1.7538  -13.7225 C   0  0  0  0  0  0  0  0  0  0  0  0
  -13.9838    0.8469  -13.9868 N   0  0  0  0  0  0  0  0  0  0  0  0
  -13.7934   -0.7648  -13.8112 C   0  0  0  0  0  0  0  0  0  0  0  0
  -14.2940   -2.3371  -13.8419 C   0  0  0  0  0  0  0  0  0  0  0  0
  -12.4976    3.2691  -13.8389 C   0  0  0  0  0  0  0  0  0  0  0  0
  -11.2860    3.9574  -13.5804 C   0  0  0  0  0  0  0  0  0  0  0  0
  -11.0733    5.0734  -14.3154 N   0  0  0  0  0  0  0  0  0  0  0  0
  -12.1318    5.1667  -15.1488 N   0  0  0  0  0  0  0  0  0  0  0  0
  -13.0127    4.1175  -14.8742 C   0  0  0  0  0  0  0  0  0  0  0  0
  -12.2568    6.2562  -16.1312 C   0  0  0  0  0  0  0  0  0  0  0  0
  -12.8241    5.9701  -17.5599 C   0  0  0  0  0  0  0  0  0  0  0  0
  -14.3085    5.9680  -17.6723 N   0  0  0  0  0  0  0  0  0  0  0  0
  -14.6732    6.8803  -17.9461 H   0  0  0  0  0  0  0  0  0  0  0  0
  -15.0117    4.6487  -18.4530 S   0  0  0  0  0  0  0  0  0  0  0  0
  -13.6307    3.5348  -18.6149 C   0  0  0  0  0  0  0  0  0  0  0  0
  -15.9259    4.0543  -17.4974 O   0  0  0  0  0  0  0  0  0  0  0  0
  -15.4396    5.0726  -19.7639 O   0  0  0  0  0  0  0  0  0  0  0  0
  -13.6865   -4.9734  -13.4638 N   0  0  0  0  0  0  0  0  0  0  0  0
  -12.8318   -8.5194  -14.6059 C   0  0  0  0  0  0  0  0  0  0  0  0
  -13.2665   -8.4355  -15.9209 C   0  0  0  0  0  0  0  0  0  0  0  0
  -13.7199   -7.2193  -16.4235 C   0  0  0  0  0  0  0  0  0  0  0  0
  -13.7563   -6.0822  -15.6159 C   0  0  0  0  0  0  0  0  0  0  0  0
  -13.4587   -6.1334  -14.2602 C   0  0  0  0  0  0  0  0  0  0  0  0
  -12.8974   -7.3684  -13.7990 C   0  0  0  0  0  0  0  0  0  0  0  0
  -12.3831   -9.7451  -12.5981 C   0  0  0  0  0  0  0  0  0  0  0  0
  -12.3649   -9.6818  -14.0293 O   0  0  0  0  0  0  0  0  0  0  0  0
  -14.2042   -7.0121  -17.6868 O   0  0  0  0  0  0  0  0  0  0  0  0
  -13.8861   -5.7541  -18.2639 C   0  0  0  0  0  0  0  0  0  0  0  0
  -14.3414   -5.2538  -12.1174 C   0  0  0  0  0  0  0  0  0  0  0  0
  -15.6986   -5.8566  -12.3398 C   0  0  0  0  0  0  0  0  0  0  0  0
  -16.6718   -5.1270  -13.2331 C   0  0  0  0  0  0  0  0  0  0  0  0
  -17.0100   -5.3328  -11.7897 C   0  0  0  0  0  0  0  0  0  0  0  0
 31 32  1  0  0  0
 32 25  1  0  0  0
 25 26  1  0  0  0
 25 30  2  0  0  0
 26 27  2  0  0  0
 27 33  1  0  0  0
 27 28  1  0  0  0
 33 34  1  0  0  0
 28 29  2  0  0  0
 29 24  1  0  0  0
 29 30  1  0  0  0
 24 35  1  0  0  0
 24  1  1  0  0  0
 35 36  1  0  0  0
 36 37  1  0  0  0
 36 38  1  0  0  0
 37 38  1  0  0  0
  1  2  1  0  0  0
  1 10  2  0  0  0
  2  3  2  0  0  0
  3  4  1  0  0  0
  4  5  1  0  0  0
  4  9  2  0  0  0
  5  6  2  0  0  0
  6  7  1  0  0  0
  7 11  1  0  0  0
  7  8  2  0  0  0
 11 12  1  0  0  0
 11 15  2  0  0  0
 12 13  2  0  0  0
 13 14  1  0  0  0
 14 16  1  0  0  0
 14 15  1  0  0  0
 16 17  1  0  0  0
 17 18  1  0  0  0
 18 20  1  0  0  0
 18 19  1  0  0  0
 20 21  1  0  0  0
 20 22  2  0  0  0
 20 23  2  0  0  0
  8  9  1  0  0  0
  9 10  1  0  0  0
M  END
> <minimizedAffinity>
-6.74141

$$$$
