CHEMBL188387


 30 33  0  0  0  0  0  0  0  0999 V2000
  -21.7606    1.0801  -14.5215 C   0  0  0  0  0  0  0  0  0  0  0  0
  -22.2741    2.3272  -14.1631 C   0  0  0  0  0  0  0  0  0  0  0  0
  -21.5144    3.4342  -14.0012 N   0  0  0  0  0  0  0  0  0  0  0  0
  -20.1968    3.2587  -14.2579 C   0  0  0  0  0  0  0  0  0  0  0  0
  -19.6409    2.0374  -14.6537 C   0  0  0  0  0  0  0  0  0  0  0  0
  -20.4361    0.9444  -14.7720 N   0  0  0  0  0  0  0  0  0  0  0  0
  -18.2216    1.8692  -15.0055 C   0  0  0  0  0  0  0  0  0  0  0  0
  -17.5693    2.7690  -15.8480 C   0  0  0  0  0  0  0  0  0  0  0  0
  -16.2689    2.7048  -16.2019 N   0  0  0  0  0  0  0  0  0  0  0  0
  -15.5710    1.6575  -15.7130 C   0  0  0  0  0  0  0  0  0  0  0  0
  -16.0945    0.6387  -14.9143 C   0  0  0  0  0  0  0  0  0  0  0  0
  -17.4403    0.7902  -14.5392 C   0  0  0  0  0  0  0  0  0  0  0  0
  -15.3319   -0.4154  -14.3880 N   0  0  0  0  0  0  0  0  0  0  0  0
  -14.3859   -0.4266  -14.7655 H   0  0  0  0  0  0  0  0  0  0  0  0
  -15.4210   -0.6760  -12.9494 C   0  0  0  0  0  0  0  0  0  0  0  0
  -15.3242   -2.1733  -12.6338 C   0  0  0  0  0  0  0  0  0  0  0  0
  -16.1702   -3.0073  -13.6039 C   0  0  0  0  0  0  0  0  0  0  0  0
  -16.2112   -4.4659  -13.1756 C   0  0  0  0  0  0  0  0  0  0  0  0
  -16.6986   -4.5857  -11.8411 O   0  0  0  0  0  0  0  0  0  0  0  0
  -15.8496   -3.9336  -10.8995 C   0  0  0  0  0  0  0  0  0  0  0  0
  -15.7777   -2.4396  -11.1870 C   0  0  0  0  0  0  0  0  0  0  0  0
  -22.6389   -0.0105  -14.7368 N   0  0  0  0  0  0  0  0  0  0  0  0
  -23.3012    0.2059  -15.4768 H   0  0  0  0  0  0  0  0  0  0  0  0
  -27.0849   -1.9008  -13.0202 Cl  0  0  0  0  0  0  0  0  0  0  0  0
  -25.4140   -1.5433  -12.8115 C   0  0  0  0  0  0  0  0  0  0  0  0
  -24.7896   -1.8595  -11.6061 C   0  0  0  0  0  0  0  0  0  0  0  0
  -23.4412   -1.5612  -11.4302 C   0  0  0  0  0  0  0  0  0  0  0  0
  -22.7234   -0.9640  -12.4665 C   0  0  0  0  0  0  0  0  0  0  0  0
  -23.3336   -0.6800  -13.6975 C   0  0  0  0  0  0  0  0  0  0  0  0
  -24.6996   -0.9398  -13.8474 C   0  0  0  0  0  0  0  0  0  0  0  0
 24 25  1  0  0  0
 25 26  1  0  0  0
 25 30  2  0  0  0
 26 27  2  0  0  0
 27 28  1  0  0  0
 28 29  2  0  0  0
 29 22  1  0  0  0
 29 30  1  0  0  0
 22  1  1  0  0  0
 22 23  1  0  0  0
  1  2  1  0  0  0
  1  6  2  0  0  0
  2  3  2  0  0  0
  3  4  1  0  0  0
  4  5  2  0  0  0
  5  7  1  0  0  0
  5  6  1  0  0  0
  7  8  1  0  0  0
  7 12  2  0  0  0
  8  9  2  0  0  0
  9 10  1  0  0  0
 10 11  2  0  0  0
 11 13  1  0  0  0
 11 12  1  0  0  0
 13 15  1  0  0  0
 13 14  1  0  0  0
 15 16  1  0  0  0
 16 17  1  0  0  0
 16 21  1  0  0  0
 17 18  1  0  0  0
 18 19  1  0  0  0
 19 20  1  0  0  0
 20 21  1  0  0  0
M  END
> <minimizedAffinity>
-9.77144

$$$$
