CHEMBL1254007


 34 37  0  0  0  0  0  0  0  0999 V2000
  -27.4536   -1.9986  -10.1742 C   0  0  0  0  0  0  0  0  0  0  0  0
  -26.1427   -1.6590   -9.8374 C   0  0  0  0  0  0  0  0  0  0  0  0
  -25.2133   -1.3321  -10.8266 C   0  0  0  0  0  0  0  0  0  0  0  0
  -25.5793   -1.3021  -12.1725 C   0  0  0  0  0  0  0  0  0  0  0  0
  -26.9136   -1.5796  -12.4930 C   0  0  0  0  0  0  0  0  0  0  0  0
  -27.3125   -1.5179  -13.7742 F   0  0  0  0  0  0  0  0  0  0  0  0
  -27.8497   -1.9235  -11.5100 C   0  0  0  0  0  0  0  0  0  0  0  0
  -24.6687   -0.9790  -13.2133 N   0  0  0  0  0  0  0  0  0  0  0  0
  -23.6128   -0.0871  -13.1010 C   0  0  0  0  0  0  0  0  0  0  0  0
  -23.2585    0.4588  -12.0583 O   0  0  0  0  0  0  0  0  0  0  0  0
  -23.0203    0.1833  -14.3258 N   0  0  0  0  0  0  0  0  0  0  0  0
  -24.6971   -1.5787  -14.0309 H   0  0  0  0  0  0  0  0  0  0  0  0
  -23.6621    0.1679  -15.1058 H   0  0  0  0  0  0  0  0  0  0  0  0
  -21.9473    1.1027  -14.4114 C   0  0  0  0  0  0  0  0  0  0  0  0
  -22.2162    2.4636  -14.2571 C   0  0  0  0  0  0  0  0  0  0  0  0
  -21.1703    3.3886  -14.2645 C   0  0  0  0  0  0  0  0  0  0  0  0
  -19.8589    2.9646  -14.4840 C   0  0  0  0  0  0  0  0  0  0  0  0
  -19.5751    1.6067  -14.6871 C   0  0  0  0  0  0  0  0  0  0  0  0
  -20.6297    0.6793  -14.6293 C   0  0  0  0  0  0  0  0  0  0  0  0
  -18.1712    1.1382  -14.9731 C   0  0  0  0  0  0  0  0  0  0  0  0
  -18.0864   -0.2048  -15.2050 F   0  0  0  0  0  0  0  0  0  0  0  0
  -17.6150    1.7359  -16.0614 F   0  0  0  0  0  0  0  0  0  0  0  0
  -17.3207    1.3802  -13.9350 F   0  0  0  0  0  0  0  0  0  0  0  0
  -28.4043   -2.3443   -9.2347 O   0  0  0  0  0  0  0  0  0  0  0  0
  -28.7123   -5.0771   -7.8217 C   0  0  0  0  0  0  0  0  0  0  0  0
  -28.4893   -4.1582   -6.7285 N   0  0  0  0  0  0  0  0  0  0  0  0
  -28.4729   -4.5203   -5.4026 C   0  0  0  0  0  0  0  0  0  0  0  0
  -28.2200   -3.3887   -4.6580 C   0  0  0  0  0  0  0  0  0  0  0  0
  -28.0761   -2.3129   -5.5634 C   0  0  0  0  0  0  0  0  0  0  0  0
  -27.8269   -1.0141   -5.2970 N   0  0  0  0  0  0  0  0  0  0  0  0
  -27.7393   -0.2534   -6.3938 C   0  0  0  0  0  0  0  0  0  0  0  0
  -27.8819   -0.6352   -7.6734 N   0  0  0  0  0  0  0  0  0  0  0  0
  -28.1812   -1.9300   -7.9235 C   0  0  0  0  0  0  0  0  0  0  0  0
  -28.2508   -2.8091   -6.8515 C   0  0  0  0  0  0  0  0  0  0  0  0
 25 26  1  0  0  0
 26 27  1  0  0  0
 26 34  1  0  0  0
 27 28  2  0  0  0
 28 29  1  0  0  0
 29 30  1  0  0  0
 29 34  2  0  0  0
 30 31  2  0  0  0
 31 32  1  0  0  0
 32 33  2  0  0  0
 33 24  1  0  0  0
 33 34  1  0  0  0
 24  1  1  0  0  0
  1  2  1  0  0  0
  1  7  2  0  0  0
  2  3  2  0  0  0
  3  4  1  0  0  0
  4  8  1  0  0  0
  4  5  2  0  0  0
  8  9  1  0  0  0
  8 12  1  0  0  0
  9 10  2  0  0  0
  9 11  1  0  0  0
 11 14  1  0  0  0
 11 13  1  0  0  0
 14 15  1  0  0  0
 14 19  2  0  0  0
 15 16  2  0  0  0
 16 17  1  0  0  0
 17 18  2  0  0  0
 18 20  1  0  0  0
 18 19  1  0  0  0
 20 21  1  0  0  0
 20 22  1  0  0  0
 20 23  1  0  0  0
  5  6  1  0  0  0
  5  7  1  0  0  0
M  END
> <minimizedAffinity>
-10.51822

$$$$
