CHEMBL3931421


 35 39  0  0  0  0  0  0  0  0999 V2000
  -28.6980   -7.6457   -5.8703 N   0  0  0  0  0  0  0  0  0  0  0  0
  -28.3837   -6.2532   -5.6226 C   0  0  0  0  0  0  0  0  0  0  0  0
  -27.6216   -6.0357   -4.4744 C   0  0  0  0  0  0  0  0  0  0  0  0
  -27.7648   -4.8573   -3.7784 C   0  0  0  0  0  0  0  0  0  0  0  0
  -28.4927   -3.8103   -4.2813 C   0  0  0  0  0  0  0  0  0  0  0  0
  -28.7088   -2.8124   -3.4160 N   0  0  0  0  0  0  0  0  0  0  0  0
  -29.2289   -1.6856   -3.9185 C   0  0  0  0  0  0  0  0  0  0  0  0
  -29.4333   -1.5156   -5.2726 C   0  0  0  0  0  0  0  0  0  0  0  0
  -29.3467   -2.5808   -6.1434 N   0  0  0  0  0  0  0  0  0  0  0  0
  -28.9378   -3.8100   -5.6194 C   0  0  0  0  0  0  0  0  0  0  0  0
  -28.9368   -5.1029   -6.2567 C   0  0  0  0  0  0  0  0  0  0  0  0
  -29.4943   -0.1308   -5.7346 C   0  0  0  0  0  0  0  0  0  0  0  0
  -30.6123    0.7452   -5.7485 C   0  0  0  0  0  0  0  0  0  0  0  0
  -30.4266    1.8228   -6.5195 N   0  0  0  0  0  0  0  0  0  0  0  0
  -29.2046    1.6351   -7.0380 N   0  0  0  0  0  0  0  0  0  0  0  0
  -28.6503    0.4347   -6.6771 C   0  0  0  0  0  0  0  0  0  0  0  0
  -28.8436    2.3291   -7.6811 H   0  0  0  0  0  0  0  0  0  0  0  0
  -28.8179   -9.4038   -9.1425 C   0  0  0  0  0  0  0  0  0  0  0  0
  -30.1730   -9.7157   -9.2463 C   0  0  0  0  0  0  0  0  0  0  0  0
  -31.0767   -9.2432   -8.3003 C   0  0  0  0  0  0  0  0  0  0  0  0
  -30.6097   -8.5195   -7.1953 C   0  0  0  0  0  0  0  0  0  0  0  0
  -29.2495   -8.2024   -7.0498 C   0  0  0  0  0  0  0  0  0  0  0  0
  -28.3700   -8.6127   -8.0752 C   0  0  0  0  0  0  0  0  0  0  0  0
  -28.6928  -10.3161  -11.3465 C   0  0  0  0  0  0  0  0  0  0  0  0
  -28.0543   -9.9703  -10.1268 O   0  0  0  0  0  0  0  0  0  0  0  0
  -32.4238   -9.4962   -8.3344 O   0  0  0  0  0  0  0  0  0  0  0  0
  -33.1590   -8.9473   -7.2407 C   0  0  0  0  0  0  0  0  0  0  0  0
  -29.1656   -8.2214   -4.5512 C   0  0  0  0  0  0  0  0  0  0  0  0
  -28.7614   -9.6521   -4.1547 C   0  0  0  0  0  0  0  0  0  0  0  0
  -27.3837   -9.8794   -3.4927 C   0  0  0  0  0  0  0  0  0  0  0  0
  -26.2772   -9.3073   -4.3074 N   0  0  0  0  0  0  0  0  0  0  0  0
  -25.9469  -10.1226   -5.4922 C   0  0  0  0  0  0  0  0  0  0  0  0
  -24.9658  -11.1654   -4.9863 C   0  0  0  0  0  0  0  0  0  0  0  0
  -24.1564  -10.4148   -3.9442 C   0  0  0  0  0  0  0  0  0  0  0  0
  -24.9904   -9.1851   -3.6016 C   0  0  0  0  0  0  0  0  0  0  0  0
 24 25  1  0  0  0
 25 18  1  0  0  0
 18 19  1  0  0  0
 18 23  2  0  0  0
 19 20  2  0  0  0
 20 26  1  0  0  0
 20 21  1  0  0  0
 26 27  1  0  0  0
 21 22  2  0  0  0
 22  1  1  0  0  0
 22 23  1  0  0  0
  1 28  1  0  0  0
  1  2  1  0  0  0
 28 29  1  0  0  0
 29 30  1  0  0  0
 30 31  1  0  0  0
 31 32  1  0  0  0
 31 35  1  0  0  0
 32 33  1  0  0  0
 33 34  1  0  0  0
 34 35  1  0  0  0
  2  3  1  0  0  0
  2 11  2  0  0  0
  3  4  2  0  0  0
  4  5  1  0  0  0
  5  6  1  0  0  0
  5 10  2  0  0  0
  6  7  2  0  0  0
  7  8  1  0  0  0
  8 12  1  0  0  0
  8  9  2  0  0  0
 12 13  1  0  0  0
 12 16  2  0  0  0
 13 14  2  0  0  0
 14 15  1  0  0  0
 15 16  1  0  0  0
 15 17  1  0  0  0
  9 10  1  0  0  0
 10 11  1  0  0  0
M  END
> <minimizedAffinity>
-8.33496

$$$$
