CHEMBL1288582


 22 25  0  0  0  0  0  0  0  0999 V2000
  -29.0994   -3.2661   -5.7429 C   0  0  0  0  0  0  0  0  0  0  0  0
  -28.9355   -1.9051   -5.4835 C   0  0  0  0  0  0  0  0  0  0  0  0
  -28.3603   -1.0577   -6.4364 C   0  0  0  0  0  0  0  0  0  0  0  0
  -27.9584   -1.5817   -7.6759 C   0  0  0  0  0  0  0  0  0  0  0  0
  -27.3715   -1.0075   -8.8299 C   0  0  0  0  0  0  0  0  0  0  0  0
  -27.2501   -1.9983   -9.7778 C   0  0  0  0  0  0  0  0  0  0  0  0
  -27.6950   -3.1713   -9.2209 N   0  0  0  0  0  0  0  0  0  0  0  0
  -28.1405   -2.9412   -7.9314 C   0  0  0  0  0  0  0  0  0  0  0  0
  -28.6955   -3.8074   -6.9756 C   0  0  0  0  0  0  0  0  0  0  0  0
  -27.7110   -4.0633   -9.6986 H   0  0  0  0  0  0  0  0  0  0  0  0
  -26.7509   -1.8037  -11.1655 C   0  0  0  0  0  0  0  0  0  0  0  0
  -27.6043   -1.7893  -12.2028 N   0  0  0  0  0  0  0  0  0  0  0  0
  -26.8065   -1.6324  -13.2700 N   0  0  0  0  0  0  0  0  0  0  0  0
  -25.4764   -1.5659  -12.9752 C   0  0  0  0  0  0  0  0  0  0  0  0
  -24.3418   -1.4451  -13.7736 C   0  0  0  0  0  0  0  0  0  0  0  0
  -23.1319   -1.4327  -13.0870 C   0  0  0  0  0  0  0  0  0  0  0  0
  -23.1317   -1.5272  -11.6985 C   0  0  0  0  0  0  0  0  0  0  0  0
  -24.2264   -1.6372  -10.9076 N   0  0  0  0  0  0  0  0  0  0  0  0
  -25.4034   -1.6593  -11.5900 C   0  0  0  0  0  0  0  0  0  0  0  0
  -27.2421   -1.5956  -14.1846 H   0  0  0  0  0  0  0  0  0  0  0  0
  -30.0586   -3.6615   -3.6026 C   0  0  0  0  0  0  0  0  0  0  0  0
  -29.6469   -4.1707   -4.8678 O   0  0  0  0  0  0  0  0  0  0  0  0
 21 22  1  0  0  0
 22  1  1  0  0  0
  1  2  1  0  0  0
  1  9  2  0  0  0
  2  3  2  0  0  0
  3  4  1  0  0  0
  4  5  1  0  0  0
  4  8  2  0  0  0
  5  6  2  0  0  0
  6 11  1  0  0  0
  6  7  1  0  0  0
 11 12  2  0  0  0
 11 19  1  0  0  0
 12 13  1  0  0  0
 13 14  1  0  0  0
 13 20  1  0  0  0
 14 15  1  0  0  0
 14 19  2  0  0  0
 15 16  2  0  0  0
 16 17  1  0  0  0
 17 18  2  0  0  0
 18 19  1  0  0  0
  7  8  1  0  0  0
  7 10  1  0  0  0
  8  9  1  0  0  0
M  END
> <minimizedAffinity>
-8.39998

$$$$
