CHEMBL3971277


 41 46  0  0  0  0  0  0  0  0999 V2000
  -25.9023  -11.5806   -5.2942 N   0  0  0  0  0  0  0  0  0  0  0  0
  -26.5896  -10.4584   -4.6517 C   0  0  0  0  0  0  0  0  0  0  0  0
  -27.5467  -10.7816   -3.6908 C   0  0  0  0  0  0  0  0  0  0  0  0
  -28.5437   -9.9009   -3.3618 C   0  0  0  0  0  0  0  0  0  0  0  0
  -28.5349   -8.6139   -3.8113 C   0  0  0  0  0  0  0  0  0  0  0  0
  -29.6519   -7.9608   -3.5006 N   0  0  0  0  0  0  0  0  0  0  0  0
  -29.6602   -6.6465   -3.7191 C   0  0  0  0  0  0  0  0  0  0  0  0
  -28.5463   -5.9683   -4.1436 C   0  0  0  0  0  0  0  0  0  0  0  0
  -27.4200   -6.6517   -4.5793 N   0  0  0  0  0  0  0  0  0  0  0  0
  -27.4258   -8.0511   -4.4807 C   0  0  0  0  0  0  0  0  0  0  0  0
  -26.4706   -9.0589   -4.9665 C   0  0  0  0  0  0  0  0  0  0  0  0
  -28.5910   -4.5214   -3.9209 C   0  0  0  0  0  0  0  0  0  0  0  0
  -29.6524   -3.7168   -3.4192 C   0  0  0  0  0  0  0  0  0  0  0  0
  -29.4750   -2.4078   -3.6464 N   0  0  0  0  0  0  0  0  0  0  0  0
  -28.3102   -2.3631   -4.3136 N   0  0  0  0  0  0  0  0  0  0  0  0
  -27.6269   -1.1073   -4.5218 C   0  0  0  0  0  0  0  0  0  0  0  0
  -27.8416   -3.6051   -4.6471 C   0  0  0  0  0  0  0  0  0  0  0  0
  -22.5785  -11.7122   -3.4963 C   0  0  0  0  0  0  0  0  0  0  0  0
  -21.6696  -11.5866   -4.5484 C   0  0  0  0  0  0  0  0  0  0  0  0
  -22.1253  -11.4949   -5.8590 C   0  0  0  0  0  0  0  0  0  0  0  0
  -23.5055  -11.5370   -6.1155 C   0  0  0  0  0  0  0  0  0  0  0  0
  -24.4606  -11.6751   -5.0804 C   0  0  0  0  0  0  0  0  0  0  0  0
  -23.9623  -11.7315   -3.7628 C   0  0  0  0  0  0  0  0  0  0  0  0
  -23.2188  -12.2387   -1.2600 C   0  0  0  0  0  0  0  0  0  0  0  0
  -22.2127  -11.7981   -2.1744 O   0  0  0  0  0  0  0  0  0  0  0  0
  -21.3214  -11.3313   -6.9569 O   0  0  0  0  0  0  0  0  0  0  0  0
  -20.8712  -10.0115   -7.2477 C   0  0  0  0  0  0  0  0  0  0  0  0
  -26.2963  -11.6702   -6.7311 C   0  0  0  0  0  0  0  0  0  0  0  0
  -27.7384  -12.1433   -7.0539 C   0  0  0  0  0  0  0  0  0  0  0  0
  -28.2300  -12.0448   -8.5106 C   0  0  0  0  0  0  0  0  0  0  0  0
  -29.0857  -10.8482   -8.7086 N   0  0  0  0  0  0  0  0  0  0  0  0
  -28.7869  -10.0522   -9.9047 C   0  0  0  0  0  0  0  0  0  0  0  0
  -27.7086   -9.0926   -9.4576 C   0  0  0  0  0  0  0  0  0  0  0  0
  -28.2192   -8.5954   -8.1008 C   0  0  0  0  0  0  0  0  0  0  0  0
  -29.0035   -9.8619   -7.6002 C   0  0  0  0  0  0  0  0  0  0  0  0
  -29.0377   -7.3448   -8.1699 N   0  0  0  0  0  0  0  0  0  0  0  0
  -30.1878   -7.4085   -7.2413 C   0  0  0  0  0  0  0  0  0  0  0  0
  -31.0686   -6.1549   -7.3116 C   0  0  0  0  0  0  0  0  0  0  0  0
  -30.2635   -4.8900   -7.0549 C   0  0  0  0  0  0  0  0  0  0  0  0
  -29.0656   -4.8511   -7.9871 C   0  0  0  0  0  0  0  0  0  0  0  0
  -28.2392   -6.1352   -7.8762 C   0  0  0  0  0  0  0  0  0  0  0  0
 24 25  1  0  0  0
 25 18  1  0  0  0
 18 19  1  0  0  0
 18 23  2  0  0  0
 19 20  2  0  0  0
 20 26  1  0  0  0
 20 21  1  0  0  0
 26 27  1  0  0  0
 21 22  2  0  0  0
 22  1  1  0  0  0
 22 23  1  0  0  0
  1 28  1  0  0  0
  1  2  1  0  0  0
 28 29  1  0  0  0
 29 30  1  0  0  0
 30 31  1  0  0  0
 31 32  1  0  0  0
 31 35  1  0  0  0
 32 33  1  0  0  0
 33 34  1  0  0  0
 34 36  1  0  0  0
 34 35  1  0  0  0
 36 37  1  0  0  0
 36 41  1  0  0  0
 37 38  1  0  0  0
 38 39  1  0  0  0
 39 40  1  0  0  0
 40 41  1  0  0  0
  2  3  1  0  0  0
  2 11  2  0  0  0
  3  4  2  0  0  0
  4  5  1  0  0  0
  5  6  1  0  0  0
  5 10  2  0  0  0
  6  7  2  0  0  0
  7  8  1  0  0  0
  8 12  1  0  0  0
  8  9  2  0  0  0
 12 13  1  0  0  0
 12 17  2  0  0  0
 13 14  2  0  0  0
 14 15  1  0  0  0
 15 16  1  0  0  0
 15 17  1  0  0  0
  9 10  1  0  0  0
 10 11  1  0  0  0
M  END
> <minimizedAffinity>
-7.69518

$$$$
