CHEMBL482538


 16 18  0  0  0  0  0  0  0  0999 V2000
  -29.3310   -3.8208   -5.9622 C   0  0  0  0  0  0  0  0  0  0  0  0
  -28.8725   -4.4539   -7.1346 C   0  0  0  0  0  0  0  0  0  0  0  0
  -29.2742   -5.7488   -7.4389 C   0  0  0  0  0  0  0  0  0  0  0  0
  -30.0853   -6.5149   -6.6849 N   0  0  0  0  0  0  0  0  0  0  0  0
  -30.5081   -5.8868   -5.5753 C   0  0  0  0  0  0  0  0  0  0  0  0
  -31.3392   -6.4650   -4.6548 N   0  0  0  0  0  0  0  0  0  0  0  0
  -31.6129   -5.5763   -3.6513 C   0  0  0  0  0  0  0  0  0  0  0  0
  -30.9555   -4.4023   -3.9475 C   0  0  0  0  0  0  0  0  0  0  0  0
  -30.2105   -4.5916   -5.1552 C   0  0  0  0  0  0  0  0  0  0  0  0
  -31.6894   -7.4066   -4.7390 H   0  0  0  0  0  0  0  0  0  0  0  0
  -28.1714    0.2239   -4.9958 C   0  0  0  0  0  0  0  0  0  0  0  0
  -27.2388   -0.8059   -4.9391 C   0  0  0  0  0  0  0  0  0  0  0  0
  -27.6200   -2.1175   -5.2468 C   0  0  0  0  0  0  0  0  0  0  0  0
  -28.9445   -2.4383   -5.6013 C   0  0  0  0  0  0  0  0  0  0  0  0
  -29.8737   -1.3820   -5.5909 C   0  0  0  0  0  0  0  0  0  0  0  0
  -29.4912   -0.0643   -5.3199 C   0  0  0  0  0  0  0  0  0  0  0  0
 11 12  1  0  0  0
 11 16  2  0  0  0
 12 13  2  0  0  0
 13 14  1  0  0  0
 14  1  1  0  0  0
 14 15  2  0  0  0
  1  2  1  0  0  0
  1  9  2  0  0  0
  2  3  2  0  0  0
  3  4  1  0  0  0
  4  5  2  0  0  0
  5  6  1  0  0  0
  5  9  1  0  0  0
  6  7  1  0  0  0
  6 10  1  0  0  0
  7  8  2  0  0  0
  8  9  1  0  0  0
 15 16  1  0  0  0
M  END
> <minimizedAffinity>
-7.27698

$$$$
