CHEMBL2337370


 33 36  0  0  0  0  0  0  0  0999 V2000
  -15.2744   -0.8170  -13.2573 C   0  0  0  0  0  0  0  0  0  0  0  0
  -16.2416   -0.3857  -14.0812 N   0  0  0  0  0  0  0  0  0  0  0  0
  -16.1206    0.8087  -14.7375 C   0  0  0  0  0  0  0  0  0  0  0  0
  -14.9267    1.5383  -14.5775 C   0  0  0  0  0  0  0  0  0  0  0  0
  -14.0051    0.9522  -13.7290 C   0  0  0  0  0  0  0  0  0  0  0  0
  -14.1229   -0.1900  -13.0542 N   0  0  0  0  0  0  0  0  0  0  0  0
  -12.8936    1.7287  -13.6687 N   0  0  0  0  0  0  0  0  0  0  0  0
  -13.0296    2.8151  -14.4938 C   0  0  0  0  0  0  0  0  0  0  0  0
  -12.1048    3.8346  -14.7602 C   0  0  0  0  0  0  0  0  0  0  0  0
  -12.4706    4.8399  -15.6542 C   0  0  0  0  0  0  0  0  0  0  0  0
  -13.7207    4.8271  -16.2573 C   0  0  0  0  0  0  0  0  0  0  0  0
  -14.6251    3.7980  -15.9748 C   0  0  0  0  0  0  0  0  0  0  0  0
  -16.1510    3.7960  -16.7403 Cl  0  0  0  0  0  0  0  0  0  0  0  0
  -14.3082    2.7478  -15.0788 C   0  0  0  0  0  0  0  0  0  0  0  0
  -12.0847    1.4976  -13.1108 H   0  0  0  0  0  0  0  0  0  0  0  0
  -15.2868   -3.2594  -13.1630 C   0  0  0  0  0  0  0  0  0  0  0  0
  -14.7468   -3.4328  -14.2539 O   0  0  0  0  0  0  0  0  0  0  0  0
  -15.5452   -2.0265  -12.6144 N   0  0  0  0  0  0  0  0  0  0  0  0
  -15.8381   -1.9168  -11.6563 H   0  0  0  0  0  0  0  0  0  0  0  0
  -16.3078   -3.9566  -10.9901 C   0  0  0  0  0  0  0  0  0  0  0  0
  -15.7371   -4.4792  -12.3260 C   0  0  0  0  0  0  0  0  0  0  0  0
  -14.5346   -5.3827  -12.0228 C   0  0  0  0  0  0  0  0  0  0  0  0
  -16.8321   -5.2864  -13.0354 C   0  0  0  0  0  0  0  0  0  0  0  0
  -17.1964    1.2393  -15.5155 N   0  0  0  0  0  0  0  0  0  0  0  0
  -17.1130    1.0948  -16.5162 H   0  0  0  0  0  0  0  0  0  0  0  0
  -18.4905    1.5608  -15.0765 C   0  0  0  0  0  0  0  0  0  0  0  0
  -18.7949    2.8407  -14.5944 C   0  0  0  0  0  0  0  0  0  0  0  0
  -20.0968    3.1801  -14.2312 C   0  0  0  0  0  0  0  0  0  0  0  0
  -21.1160    2.2413  -14.3661 C   0  0  0  0  0  0  0  0  0  0  0  0
  -22.7282    2.6811  -13.9618 Cl  0  0  0  0  0  0  0  0  0  0  0  0
  -20.8401    0.9597  -14.8328 C   0  0  0  0  0  0  0  0  0  0  0  0
  -19.5318    0.6283  -15.1739 C   0  0  0  0  0  0  0  0  0  0  0  0
  -19.2788   -0.6071  -15.6355 F   0  0  0  0  0  0  0  0  0  0  0  0
 20 21  1  0  0  0
 21 22  1  0  0  0
 21 23  1  0  0  0
 21 16  1  0  0  0
 16 17  2  0  0  0
 16 18  1  0  0  0
 18  1  1  0  0  0
 18 19  1  0  0  0
  1  2  1  0  0  0
  1  6  2  0  0  0
  2  3  2  0  0  0
  3 24  1  0  0  0
  3  4  1  0  0  0
 24 26  1  0  0  0
 24 25  1  0  0  0
 26 27  1  0  0  0
 26 32  2  0  0  0
 27 28  2  0  0  0
 28 29  1  0  0  0
 29 30  1  0  0  0
 29 31  2  0  0  0
 31 32  1  0  0  0
 32 33  1  0  0  0
  4  5  2  0  0  0
  4 14  1  0  0  0
  5  6  1  0  0  0
  5  7  1  0  0  0
  7  8  1  0  0  0
  7 15  1  0  0  0
  8  9  1  0  0  0
  8 14  2  0  0  0
  9 10  2  0  0  0
 10 11  1  0  0  0
 11 12  2  0  0  0
 12 13  1  0  0  0
 12 14  1  0  0  0
M  END
> <minimizedAffinity>
-9.29110

$$$$
