CHEMBL3943860


 35 39  0  0  0  0  0  0  0  0999 V2000
  -28.5018  -10.3822   -5.5032 N   0  0  0  0  0  0  0  0  0  0  0  0
  -28.4083   -8.9122   -5.2859 C   0  0  0  0  0  0  0  0  0  0  0  0
  -29.3803   -8.3598   -6.0075 C   0  0  0  0  0  0  0  0  0  0  0  0
  -29.4758   -7.1069   -6.0787 C   0  0  0  0  0  0  0  0  0  0  0  0
  -28.6884   -6.2927   -5.5137 C   0  0  0  0  0  0  0  0  0  0  0  0
  -28.9378   -5.2358   -6.1534 N   0  0  0  0  0  0  0  0  0  0  0  0
  -28.9495   -4.0897   -5.8022 C   0  0  0  0  0  0  0  0  0  0  0  0
  -28.3180   -3.5827   -4.8358 C   0  0  0  0  0  0  0  0  0  0  0  0
  -27.5237   -4.7844   -4.1902 N   0  0  0  0  0  0  0  0  0  0  0  0
  -27.7817   -6.2936   -4.5419 C   0  0  0  0  0  0  0  0  0  0  0  0
  -27.5655   -7.9094   -4.3839 C   0  0  0  0  0  0  0  0  0  0  0  0
  -28.7287   -1.8964   -5.1542 C   0  0  0  0  0  0  0  0  0  0  0  0
  -27.6622   -0.8485   -4.9036 C   0  0  0  0  0  0  0  0  0  0  0  0
  -28.1939    0.4137   -5.1317 N   0  0  0  0  0  0  0  0  0  0  0  0
  -29.4219    0.3154   -5.4701 N   0  0  0  0  0  0  0  0  0  0  0  0
  -30.2409    1.5972   -5.7986 C   0  0  0  0  0  0  0  0  0  0  0  0
  -29.8271   -1.0370   -5.4264 C   0  0  0  0  0  0  0  0  0  0  0  0
  -31.3800  -11.8840   -7.6492 C   0  0  0  0  0  0  0  0  0  0  0  0
  -30.7390  -11.9436   -8.8871 C   0  0  0  0  0  0  0  0  0  0  0  0
  -29.4051  -11.5555   -9.0250 C   0  0  0  0  0  0  0  0  0  0  0  0
  -28.7113  -11.0605   -7.9101 C   0  0  0  0  0  0  0  0  0  0  0  0
  -29.2708  -11.0206   -6.6271 C   0  0  0  0  0  0  0  0  0  0  0  0
  -30.6163  -11.5268   -6.4878 C   0  0  0  0  0  0  0  0  0  0  0  0
  -33.5682  -12.2584   -6.5417 C   0  0  0  0  0  0  0  0  0  0  0  0
  -32.7312  -12.0746   -7.6353 O   0  0  0  0  0  0  0  0  0  0  0  0
  -28.8416  -11.5584  -10.2624 O   0  0  0  0  0  0  0  0  0  0  0  0
  -28.9394  -10.5054  -11.1522 C   0  0  0  0  0  0  0  0  0  0  0  0
  -27.9978  -11.3236   -4.5265 C   0  0  0  0  0  0  0  0  0  0  0  0
  -26.5827  -11.7677   -4.9038 C   0  0  0  0  0  0  0  0  0  0  0  0
  -25.4879  -10.9269   -4.3871 N   0  0  0  0  0  0  0  0  0  0  0  0
  -24.4031  -11.6921   -3.7335 C   0  0  0  0  0  0  0  0  0  0  0  0
  -23.1893  -11.5475   -4.6138 C   0  0  0  0  0  0  0  0  0  0  0  0
  -23.3532  -10.1562   -5.1914 C   0  0  0  0  0  0  0  0  0  0  0  0
  -24.8506  -10.0750   -5.4541 C   0  0  0  0  0  0  0  0  0  0  0  0
  -25.1306  -10.5168   -6.9167 C   0  0  0  0  0  0  0  0  0  0  0  0
 24 25  1  0  0  0
 25 18  1  0  0  0
 18 19  1  0  0  0
 18 23  2  0  0  0
 19 20  2  0  0  0
 20 26  1  0  0  0
 20 21  1  0  0  0
 26 27  1  0  0  0
 21 22  2  0  0  0
 22  1  1  0  0  0
 22 23  1  0  0  0
  1 28  1  0  0  0
  1  2  1  0  0  0
 28 29  1  0  0  0
 29 30  1  0  0  0
 30 31  1  0  0  0
 30 34  1  0  0  0
 31 32  1  0  0  0
 32 33  1  0  0  0
 33 34  1  0  0  0
 34 35  1  0  0  0
  2  3  1  0  0  0
  2 11  2  0  0  0
  3  4  2  0  0  0
  4  5  1  0  0  0
  5  6  1  0  0  0
  5 10  2  0  0  0
  6  7  2  0  0  0
  7  8  1  0  0  0
  8 12  1  0  0  0
  8  9  2  0  0  0
 12 13  1  0  0  0
 12 17  2  0  0  0
 13 14  2  0  0  0
 14 15  1  0  0  0
 15 16  1  0  0  0
 15 17  1  0  0  0
  9 10  1  0  0  0
 10 11  1  0  0  0
M  END
> <minimizedAffinity>
-7.70701

$$$$
