CHEMBL44608


 29 32  0  0  0  0  0  0  0  0999 V2000
  -22.9283   11.9119  -16.0823 C   0  0  0  0  0  0  0  0  0  0  0  0
  -22.0362   10.9983  -15.6692 N   0  0  0  0  0  0  0  0  0  0  0  0
  -21.3438   10.3344  -16.6082 C   0  0  0  0  0  0  0  0  0  0  0  0
  -21.4901   10.5552  -17.9533 C   0  0  0  0  0  0  0  0  0  0  0  0
  -22.3803   11.5511  -18.2959 C   0  0  0  0  0  0  0  0  0  0  0  0
  -23.1189   12.2138  -17.3747 N   0  0  0  0  0  0  0  0  0  0  0  0
  -22.4729   11.9475  -19.6634 N   0  0  0  0  0  0  0  0  0  0  0  0
  -23.6540   12.1820  -20.3430 C   0  0  0  0  0  0  0  0  0  0  0  0
  -23.2923   12.6583  -21.5756 C   0  0  0  0  0  0  0  0  0  0  0  0
  -21.9361   12.6572  -21.7094 N   0  0  0  0  0  0  0  0  0  0  0  0
  -21.4384   12.1705  -20.5762 C   0  0  0  0  0  0  0  0  0  0  0  0
  -20.0053   11.8539  -20.3982 C   0  0  0  0  0  0  0  0  0  0  0  0
  -19.4892   10.6706  -20.9488 C   0  0  0  0  0  0  0  0  0  0  0  0
  -18.1304   10.3574  -20.8348 C   0  0  0  0  0  0  0  0  0  0  0  0
  -17.2653   11.2276  -20.1754 C   0  0  0  0  0  0  0  0  0  0  0  0
  -17.7684   12.3762  -19.5760 C   0  0  0  0  0  0  0  0  0  0  0  0
  -19.1339   12.6572  -19.6531 C   0  0  0  0  0  0  0  0  0  0  0  0
  -23.7103   12.5956  -15.1500 N   0  0  0  0  0  0  0  0  0  0  0  0
  -23.1050   12.8982  -14.3953 H   0  0  0  0  0  0  0  0  0  0  0  0
  -27.1608   11.1357  -15.0613 C   0  0  0  0  0  0  0  0  0  0  0  0
  -27.5782   11.5798  -13.7996 C   0  0  0  0  0  0  0  0  0  0  0  0
  -26.7207   12.3370  -13.0035 C   0  0  0  0  0  0  0  0  0  0  0  0
  -25.4407   12.6576  -13.4629 C   0  0  0  0  0  0  0  0  0  0  0  0
  -25.0135   12.2679  -14.7369 C   0  0  0  0  0  0  0  0  0  0  0  0
  -25.8768   11.4875  -15.5172 C   0  0  0  0  0  0  0  0  0  0  0  0
  -27.3758    9.4803  -16.7905 F   0  0  0  0  0  0  0  0  0  0  0  0
  -28.0557   10.2871  -15.9276 C   0  0  0  0  0  0  0  0  0  0  0  0
  -28.8891   11.0370  -16.7031 F   0  0  0  0  0  0  0  0  0  0  0  0
  -28.8624    9.4620  -15.2046 F   0  0  0  0  0  0  0  0  0  0  0  0
 26 27  1  0  0  0
 27 28  1  0  0  0
 27 29  1  0  0  0
 27 20  1  0  0  0
 20 21  1  0  0  0
 20 25  2  0  0  0
 21 22  2  0  0  0
 22 23  1  0  0  0
 23 24  2  0  0  0
 24 18  1  0  0  0
 24 25  1  0  0  0
 18  1  1  0  0  0
 18 19  1  0  0  0
  1  2  1  0  0  0
  1  6  2  0  0  0
  2  3  2  0  0  0
  3  4  1  0  0  0
  4  5  2  0  0  0
  5  7  1  0  0  0
  5  6  1  0  0  0
  7  8  1  0  0  0
  7 11  1  0  0  0
  8  9  2  0  0  0
  9 10  1  0  0  0
 10 11  2  0  0  0
 11 12  1  0  0  0
 12 13  1  0  0  0
 12 17  2  0  0  0
 13 14  2  0  0  0
 14 15  1  0  0  0
 15 16  2  0  0  0
 16 17  1  0  0  0
M  END
> <minimizedAffinity>
-5.03389

$$$$
