CHEMBL3741621


 41 45  0  0  0  0  0  0  0  0999 V2000
  -15.3463   -1.2568  -12.3053 O   0  0  0  0  0  0  0  0  0  0  0  0
  -14.9329   -2.4983  -12.7175 C   0  0  0  0  0  0  0  0  0  0  0  0
  -13.6198   -2.8685  -12.4372 C   0  0  0  0  0  0  0  0  0  0  0  0
  -13.1096   -4.0432  -12.9964 C   0  0  0  0  0  0  0  0  0  0  0  0
  -13.9461   -4.8955  -13.7450 C   0  0  0  0  0  0  0  0  0  0  0  0
  -13.5375   -6.1134  -14.3068 C   0  0  0  0  0  0  0  0  0  0  0  0
  -14.0560   -7.1596  -13.5698 C   0  0  0  0  0  0  0  0  0  0  0  0
  -15.4163   -7.0929  -13.2842 C   0  0  0  0  0  0  0  0  0  0  0  0
  -16.0953   -5.8726  -13.4663 C   0  0  0  0  0  0  0  0  0  0  0  0
  -15.3229   -4.7057  -13.5798 C   0  0  0  0  0  0  0  0  0  0  0  0
  -15.8156   -3.4360  -13.2537 C   0  0  0  0  0  0  0  0  0  0  0  0
  -13.9538   -6.2701  -15.8274 C   0  0  0  0  0  0  0  0  0  0  0  0
  -14.3829   -7.3388  -16.2499 O   0  0  0  0  0  0  0  0  0  0  0  0
  -13.7517   -5.1231  -16.6063 N   0  0  0  0  0  0  0  0  0  0  0  0
  -13.4836   -4.2861  -16.1105 H   0  0  0  0  0  0  0  0  0  0  0  0
  -13.8178   -4.9648  -18.0175 C   0  0  0  0  0  0  0  0  0  0  0  0
  -14.0864   -5.9847  -18.9302 C   0  0  0  0  0  0  0  0  0  0  0  0
  -14.1438   -5.7191  -20.3089 C   0  0  0  0  0  0  0  0  0  0  0  0
  -13.9278   -4.4291  -20.7961 C   0  0  0  0  0  0  0  0  0  0  0  0
  -13.6342   -3.4069  -19.9005 C   0  0  0  0  0  0  0  0  0  0  0  0
  -13.5730   -3.6762  -18.5266 C   0  0  0  0  0  0  0  0  0  0  0  0
  -16.9026    0.6817  -14.7928 C   0  0  0  0  0  0  0  0  0  0  0  0
  -15.9904    1.5943  -15.1584 N   0  0  0  0  0  0  0  0  0  0  0  0
  -14.8122    1.5773  -14.5081 C   0  0  0  0  0  0  0  0  0  0  0  0
  -14.5038    0.6797  -13.5180 C   0  0  0  0  0  0  0  0  0  0  0  0
  -15.4696   -0.2647  -13.2593 C   0  0  0  0  0  0  0  0  0  0  0  0
  -16.6644   -0.2615  -13.8733 N   0  0  0  0  0  0  0  0  0  0  0  0
  -18.1470    0.7979  -15.4169 N   0  0  0  0  0  0  0  0  0  0  0  0
  -18.0230    0.6097  -16.4024 H   0  0  0  0  0  0  0  0  0  0  0  0
  -21.5887    1.4823  -14.2291 C   0  0  0  0  0  0  0  0  0  0  0  0
  -21.6599    2.8863  -14.2695 C   0  0  0  0  0  0  0  0  0  0  0  0
  -20.5344    3.5878  -14.6757 C   0  0  0  0  0  0  0  0  0  0  0  0
  -19.3725    2.9065  -15.0409 C   0  0  0  0  0  0  0  0  0  0  0  0
  -19.3028    1.5051  -15.0523 C   0  0  0  0  0  0  0  0  0  0  0  0
  -20.4325    0.7936  -14.6206 C   0  0  0  0  0  0  0  0  0  0  0  0
  -22.9983    0.6119  -13.6012 S   0  0  0  0  0  0  0  0  0  0  0  0
  -23.4811   -0.2785  -14.6316 O   0  0  0  0  0  0  0  0  0  0  0  0
  -23.8596    1.5755  -12.9525 O   0  0  0  0  0  0  0  0  0  0  0  0
  -23.0819   -1.3995  -11.8078 C   0  0  0  0  0  0  0  0  0  0  0  0
  -22.2885   -0.3133  -12.3795 N   0  0  0  0  0  0  0  0  0  0  0  0
  -21.3171   -0.5322  -12.5963 H   0  0  0  0  0  0  0  0  0  0  0  0
 39 40  1  0  0  0
 40 36  1  0  0  0
 40 41  1  0  0  0
 36 37  2  0  0  0
 36 38  2  0  0  0
 36 30  1  0  0  0
 30 31  1  0  0  0
 30 35  2  0  0  0
 31 32  2  0  0  0
 32 33  1  0  0  0
 33 34  2  0  0  0
 34 28  1  0  0  0
 34 35  1  0  0  0
 28 22  1  0  0  0
 28 29  1  0  0  0
 22 23  1  0  0  0
 22 27  2  0  0  0
 23 24  2  0  0  0
 24 25  1  0  0  0
 25 26  2  0  0  0
 26  1  1  0  0  0
 26 27  1  0  0  0
  1  2  1  0  0  0
  2  3  1  0  0  0
  2 11  2  0  0  0
  3  4  2  0  0  0
  4  5  1  0  0  0
  5  6  1  0  0  0
  5 10  2  0  0  0
  6 12  1  0  0  0
  6  7  2  0  0  0
 12 13  2  0  0  0
 12 14  1  0  0  0
 14 16  1  0  0  0
 14 15  1  0  0  0
 16 17  1  0  0  0
 16 21  2  0  0  0
 17 18  2  0  0  0
 18 19  1  0  0  0
 19 20  2  0  0  0
 20 21  1  0  0  0
  7  8  1  0  0  0
  8  9  2  0  0  0
  9 10  1  0  0  0
 10 11  1  0  0  0
M  END
> <minimizedAffinity>
-9.50050

$$$$
