CHEMBL2086732


 31 35  0  0  0  0  0  0  0  0999 V2000
  -28.8682   -8.0374   -6.6547 C   0  0  0  0  0  0  0  0  0  0  0  0
  -29.3972   -8.1478   -7.8976 C   0  0  0  0  0  0  0  0  0  0  0  0
  -30.7724   -8.8219   -7.8824 C   0  0  0  0  0  0  0  0  0  0  0  0
  -31.6945   -8.6335   -7.1146 O   0  0  0  0  0  0  0  0  0  0  0  0
  -30.7444   -9.7774   -8.8926 N   0  0  0  0  0  0  0  0  0  0  0  0
  -29.5000   -9.8327   -9.4984 C   0  0  0  0  0  0  0  0  0  0  0  0
  -29.0667  -10.7374  -10.4437 C   0  0  0  0  0  0  0  0  0  0  0  0
  -27.7679  -10.5794  -10.9340 C   0  0  0  0  0  0  0  0  0  0  0  0
  -26.9659   -9.5014  -10.5143 C   0  0  0  0  0  0  0  0  0  0  0  0
  -27.4203   -8.6132   -9.5336 C   0  0  0  0  0  0  0  0  0  0  0  0
  -28.6752   -8.8338   -8.9902 C   0  0  0  0  0  0  0  0  0  0  0  0
  -31.5304  -10.3770   -9.0910 H   0  0  0  0  0  0  0  0  0  0  0  0
  -29.1293   -6.7982   -5.9849 C   0  0  0  0  0  0  0  0  0  0  0  0
  -30.2329   -6.0902   -5.8354 N   0  0  0  0  0  0  0  0  0  0  0  0
  -29.9172   -5.0640   -4.9776 C   0  0  0  0  0  0  0  0  0  0  0  0
  -30.7443   -4.0883   -4.4048 C   0  0  0  0  0  0  0  0  0  0  0  0
  -30.1759   -3.1618   -3.5214 C   0  0  0  0  0  0  0  0  0  0  0  0
  -28.8053   -3.1965   -3.2302 C   0  0  0  0  0  0  0  0  0  0  0  0
  -27.9611   -4.1579   -3.7986 C   0  0  0  0  0  0  0  0  0  0  0  0
  -28.5641   -5.0785   -4.6616 C   0  0  0  0  0  0  0  0  0  0  0  0
  -28.0787   -6.1548   -5.3520 N   0  0  0  0  0  0  0  0  0  0  0  0
  -27.1227   -6.4836   -5.3343 H   0  0  0  0  0  0  0  0  0  0  0  0
  -27.1488  -12.1906   -3.1616 N   0  0  0  0  0  0  0  0  0  0  0  0
  -27.5921  -11.2123   -4.0578 C   0  0  0  0  0  0  0  0  0  0  0  0
  -27.0109  -11.0851   -5.3222 C   0  0  0  0  0  0  0  0  0  0  0  0
  -27.4435  -10.0965   -6.2172 C   0  0  0  0  0  0  0  0  0  0  0  0
  -28.5139   -9.2668   -5.8756 C   0  0  0  0  0  0  0  0  0  0  0  0
  -29.2057   -9.5222   -4.6803 C   0  0  0  0  0  0  0  0  0  0  0  0
  -28.7498  -10.4877   -3.7831 C   0  0  0  0  0  0  0  0  0  0  0  0
  -26.1705  -12.4369   -3.2770 H   0  0  0  0  0  0  0  0  0  0  0  0
  -27.3683  -11.9713   -2.1932 H   0  0  0  0  0  0  0  0  0  0  0  0
 23 24  1  0  0  0
 23 30  1  0  0  0
 23 31  1  0  0  0
 24 25  1  0  0  0
 24 29  2  0  0  0
 25 26  2  0  0  0
 26 27  1  0  0  0
 27  1  1  0  0  0
 27 28  2  0  0  0
  1  2  2  0  0  0
  1 13  1  0  0  0
  2  3  1  0  0  0
  2 11  1  0  0  0
  3  4  2  0  0  0
  3  5  1  0  0  0
  5  6  1  0  0  0
  5 12  1  0  0  0
  6  7  1  0  0  0
  6 11  2  0  0  0
  7  8  2  0  0  0
  8  9  1  0  0  0
  9 10  2  0  0  0
 10 11  1  0  0  0
 13 14  2  0  0  0
 13 21  1  0  0  0
 14 15  1  0  0  0
 15 16  1  0  0  0
 15 20  2  0  0  0
 16 17  2  0  0  0
 17 18  1  0  0  0
 18 19  2  0  0  0
 19 20  1  0  0  0
 20 21  1  0  0  0
 21 22  1  0  0  0
 28 29  1  0  0  0
M  END
> <minimizedAffinity>
-9.06260

$$$$
