CHEMBL309331


 31 35  0  0  0  0  0  0  0  0999 V2000
  -17.5576    2.2151  -14.9231 C   0  0  0  0  0  0  0  0  0  0  0  0
  -17.3582    1.2672  -13.9840 N   0  0  0  0  0  0  0  0  0  0  0  0
  -16.1190    0.7547  -13.7371 N   0  0  0  0  0  0  0  0  0  0  0  0
  -15.0497    1.2179  -14.4141 C   0  0  0  0  0  0  0  0  0  0  0  0
  -15.1816    2.2126  -15.3973 C   0  0  0  0  0  0  0  0  0  0  0  0
  -14.0792    2.7272  -16.1224 C   0  0  0  0  0  0  0  0  0  0  0  0
  -14.2414    3.6646  -17.1388 C   0  0  0  0  0  0  0  0  0  0  0  0
  -15.5161    4.1096  -17.4622 C   0  0  0  0  0  0  0  0  0  0  0  0
  -16.6154    3.6386  -16.7459 C   0  0  0  0  0  0  0  0  0  0  0  0
  -16.4769    2.7048  -15.6860 C   0  0  0  0  0  0  0  0  0  0  0  0
  -18.8687    2.7156  -15.1543 N   0  0  0  0  0  0  0  0  0  0  0  0
  -18.8902    3.7162  -15.0027 H   0  0  0  0  0  0  0  0  0  0  0  0
  -22.4517    0.6905  -14.0317 C   0  0  0  0  0  0  0  0  0  0  0  0
  -22.2986    2.0629  -13.8090 C   0  0  0  0  0  0  0  0  0  0  0  0
  -21.1503    2.7472  -14.2146 C   0  0  0  0  0  0  0  0  0  0  0  0
  -20.1108    2.0992  -14.8807 C   0  0  0  0  0  0  0  0  0  0  0  0
  -20.2512    0.7241  -15.1090 C   0  0  0  0  0  0  0  0  0  0  0  0
  -21.4062    0.0357  -14.7048 C   0  0  0  0  0  0  0  0  0  0  0  0
  -25.9562   -1.3713  -12.6171 C   0  0  0  0  0  0  0  0  0  0  0  0
  -25.4762   -1.6154  -13.8988 C   0  0  0  0  0  0  0  0  0  0  0  0
  -24.3302   -0.9567  -14.3497 C   0  0  0  0  0  0  0  0  0  0  0  0
  -23.6456   -0.0299  -13.5397 C   0  0  0  0  0  0  0  0  0  0  0  0
  -24.1659    0.2064  -12.2555 C   0  0  0  0  0  0  0  0  0  0  0  0
  -25.3020   -0.4607  -11.7951 C   0  0  0  0  0  0  0  0  0  0  0  0
  -13.7352    0.5678  -14.0444 C   0  0  0  0  0  0  0  0  0  0  0  0
  -13.5112   -0.8001  -14.6479 C   0  0  0  0  0  0  0  0  0  0  0  0
  -13.8448   -1.9616  -13.9423 C   0  0  0  0  0  0  0  0  0  0  0  0
  -13.6467   -3.1928  -14.5487 C   0  0  0  0  0  0  0  0  0  0  0  0
  -13.1532   -3.3460  -15.7958 N   0  0  0  0  0  0  0  0  0  0  0  0
  -12.8477   -2.2160  -16.4661 C   0  0  0  0  0  0  0  0  0  0  0  0
  -13.0076   -0.9402  -15.9449 C   0  0  0  0  0  0  0  0  0  0  0  0
 19 20  1  0  0  0
 19 24  2  0  0  0
 20 21  2  0  0  0
 21 22  1  0  0  0
 22 13  1  0  0  0
 22 23  2  0  0  0
 13 14  1  0  0  0
 13 18  2  0  0  0
 14 15  2  0  0  0
 15 16  1  0  0  0
 16 11  1  0  0  0
 16 17  2  0  0  0
 11  1  1  0  0  0
 11 12  1  0  0  0
  1  2  1  0  0  0
  1 10  2  0  0  0
  2  3  2  0  0  0
  3  4  1  0  0  0
  4 25  1  0  0  0
  4  5  2  0  0  0
 25 26  1  0  0  0
 26 27  1  0  0  0
 26 31  2  0  0  0
 27 28  2  0  0  0
 28 29  1  0  0  0
 29 30  2  0  0  0
 30 31  1  0  0  0
  5  6  1  0  0  0
  5 10  1  0  0  0
  6  7  2  0  0  0
  7  8  1  0  0  0
  8  9  2  0  0  0
  9 10  1  0  0  0
 17 18  1  0  0  0
 23 24  1  0  0  0
M  END
> <minimizedAffinity>
-9.82015

$$$$
