CHEMBL3961228


 37 40  0  0  0  0  0  0  0  0999 V2000
  -25.5838   -1.7171  -12.2184 C   0  0  0  0  0  0  0  0  0  0  0  0
  -25.7069   -1.2812  -13.5413 C   0  0  0  0  0  0  0  0  0  0  0  0
  -24.5826   -0.9285  -14.2828 C   0  0  0  0  0  0  0  0  0  0  0  0
  -23.3226   -0.9169  -13.6831 C   0  0  0  0  0  0  0  0  0  0  0  0
  -23.1971   -1.3188  -12.3485 C   0  0  0  0  0  0  0  0  0  0  0  0
  -24.3288   -1.6992  -11.6071 C   0  0  0  0  0  0  0  0  0  0  0  0
  -27.9426   -2.6515   -9.6288 N   0  0  0  0  0  0  0  0  0  0  0  0
  -26.8062   -2.0747  -10.1650 C   0  0  0  0  0  0  0  0  0  0  0  0
  -25.9850   -1.4513   -9.5001 O   0  0  0  0  0  0  0  0  0  0  0  0
  -26.7036   -2.2619  -11.5392 N   0  0  0  0  0  0  0  0  0  0  0  0
  -28.2821   -3.4787  -10.0970 H   0  0  0  0  0  0  0  0  0  0  0  0
  -27.5850   -2.2597  -12.0336 H   0  0  0  0  0  0  0  0  0  0  0  0
  -28.8137   -0.9301   -6.3843 C   0  0  0  0  0  0  0  0  0  0  0  0
  -28.4397   -1.1477   -7.7283 C   0  0  0  0  0  0  0  0  0  0  0  0
  -28.3618   -2.4311   -8.2908 C   0  0  0  0  0  0  0  0  0  0  0  0
  -28.7172   -3.5239   -7.5047 C   0  0  0  0  0  0  0  0  0  0  0  0
  -29.1062   -3.3306   -6.1740 C   0  0  0  0  0  0  0  0  0  0  0  0
  -29.1470   -2.0458   -5.6133 C   0  0  0  0  0  0  0  0  0  0  0  0
  -29.6098   -1.9234   -3.9554 Cl  0  0  0  0  0  0  0  0  0  0  0  0
  -30.1879    1.0085   -5.5660 C   0  0  0  0  0  0  0  0  0  0  0  0
  -28.7853    0.4890   -5.8554 C   0  0  0  0  0  0  0  0  0  0  0  0
  -28.1678    1.3711   -6.6915 F   0  0  0  0  0  0  0  0  0  0  0  0
  -28.0785    0.5855   -4.6855 F   0  0  0  0  0  0  0  0  0  0  0  0
  -22.1658   -0.5704  -14.3585 O   0  0  0  0  0  0  0  0  0  0  0  0
  -21.7861    0.7600  -14.3807 C   0  0  0  0  0  0  0  0  0  0  0  0
  -22.5782    1.7763  -13.8635 C   0  0  0  0  0  0  0  0  0  0  0  0
  -22.1409    3.0721  -14.0142 C   0  0  0  0  0  0  0  0  0  0  0  0
  -20.9602    3.3921  -14.5695 N   0  0  0  0  0  0  0  0  0  0  0  0
  -20.1559    2.4093  -14.9986 C   0  0  0  0  0  0  0  0  0  0  0  0
  -20.5342    1.0705  -14.9267 C   0  0  0  0  0  0  0  0  0  0  0  0
  -18.8999    2.7425  -15.5429 N   0  0  0  0  0  0  0  0  0  0  0  0
  -17.6933    2.3706  -14.9778 C   0  0  0  0  0  0  0  0  0  0  0  0
  -17.5195    1.7136  -13.9613 O   0  0  0  0  0  0  0  0  0  0  0  0
  -18.8888    3.2982  -16.3808 H   0  0  0  0  0  0  0  0  0  0  0  0
  -16.4546    2.8415  -15.6726 C   0  0  0  0  0  0  0  0  0  0  0  0
  -16.2738    4.3181  -15.9416 C   0  0  0  0  0  0  0  0  0  0  0  0
  -16.3380    3.3468  -17.0863 C   0  0  0  0  0  0  0  0  0  0  0  0
 20 21  1  0  0  0
 21 22  1  0  0  0
 21 23  1  0  0  0
 21 13  1  0  0  0
 13 14  1  0  0  0
 13 18  2  0  0  0
 14 15  2  0  0  0
 15  7  1  0  0  0
 15 16  1  0  0  0
  7  8  1  0  0  0
  7 11  1  0  0  0
  8  9  2  0  0  0
  8 10  1  0  0  0
 10  1  1  0  0  0
 10 12  1  0  0  0
  1  2  1  0  0  0
  1  6  2  0  0  0
  2  3  2  0  0  0
  3  4  1  0  0  0
  4 24  1  0  0  0
  4  5  2  0  0  0
 24 25  1  0  0  0
 25 26  1  0  0  0
 25 30  2  0  0  0
 26 27  2  0  0  0
 27 28  1  0  0  0
 28 29  2  0  0  0
 29 31  1  0  0  0
 29 30  1  0  0  0
 31 32  1  0  0  0
 31 34  1  0  0  0
 32 33  2  0  0  0
 32 35  1  0  0  0
 35 36  1  0  0  0
 35 37  1  0  0  0
 36 37  1  0  0  0
  5  6  1  0  0  0
 16 17  2  0  0  0
 17 18  1  0  0  0
 18 19  1  0  0  0
M  END
> <minimizedAffinity>
-11.74893

$$$$
