CHEMBL230222


 37 42  0  0  0  0  0  0  0  0999 V2000
  -26.7853   -1.9441  -10.9336 C   0  0  0  0  0  0  0  0  0  0  0  0
  -25.5491   -1.5739  -10.6701 N   0  0  0  0  0  0  0  0  0  0  0  0
  -25.0068   -1.3262  -11.8964 C   0  0  0  0  0  0  0  0  0  0  0  0
  -23.7287   -0.8928  -12.2578 C   0  0  0  0  0  0  0  0  0  0  0  0
  -23.4512   -0.7215  -13.6227 C   0  0  0  0  0  0  0  0  0  0  0  0
  -24.4248   -1.0125  -14.5933 C   0  0  0  0  0  0  0  0  0  0  0  0
  -25.7227   -1.4122  -14.2397 C   0  0  0  0  0  0  0  0  0  0  0  0
  -25.9498   -1.5644  -12.8796 C   0  0  0  0  0  0  0  0  0  0  0  0
  -27.0960   -1.9789  -12.2673 O   0  0  0  0  0  0  0  0  0  0  0  0
  -27.7841   -2.2854  -10.1063 N   0  0  0  0  0  0  0  0  0  0  0  0
  -28.6486   -2.5827  -10.5378 H   0  0  0  0  0  0  0  0  0  0  0  0
  -28.1752   -2.8779   -6.4536 C   0  0  0  0  0  0  0  0  0  0  0  0
  -28.1166   -3.0634   -7.8427 C   0  0  0  0  0  0  0  0  0  0  0  0
  -27.8635   -2.0059   -8.7334 C   0  0  0  0  0  0  0  0  0  0  0  0
  -27.6275   -0.7420   -8.1829 C   0  0  0  0  0  0  0  0  0  0  0  0
  -27.6869   -0.5282   -6.8034 C   0  0  0  0  0  0  0  0  0  0  0  0
  -27.9618   -1.5934   -5.9413 C   0  0  0  0  0  0  0  0  0  0  0  0
  -28.0203   -1.2640   -4.2479 Cl  0  0  0  0  0  0  0  0  0  0  0  0
  -28.4246   -3.8954   -5.5561 O   0  0  0  0  0  0  0  0  0  0  0  0
  -29.8088   -4.1775   -5.3225 C   0  0  0  0  0  0  0  0  0  0  0  0
  -31.6879   -5.7281   -3.6352 C   0  0  0  0  0  0  0  0  0  0  0  0
  -30.6637   -6.4036   -4.4175 N   0  0  0  0  0  0  0  0  0  0  0  0
  -29.4939   -6.7654   -3.6197 C   0  0  0  0  0  0  0  0  0  0  0  0
  -28.4861   -7.1907   -4.6745 C   0  0  0  0  0  0  0  0  0  0  0  0
  -28.9075   -6.4742   -5.9566 C   0  0  0  0  0  0  0  0  0  0  0  0
  -30.1516   -5.6584   -5.5872 C   0  0  0  0  0  0  0  0  0  0  0  0
  -22.1552   -0.3461  -13.9056 O   0  0  0  0  0  0  0  0  0  0  0  0
  -21.8345    0.9720  -14.1380 C   0  0  0  0  0  0  0  0  0  0  0  0
  -22.6592    2.0556  -13.8153 C   0  0  0  0  0  0  0  0  0  0  0  0
  -22.2297    3.3441  -14.1018 C   0  0  0  0  0  0  0  0  0  0  0  0
  -21.0361    3.6780  -14.6365 N   0  0  0  0  0  0  0  0  0  0  0  0
  -20.2479    2.6117  -14.8566 C   0  0  0  0  0  0  0  0  0  0  0  0
  -18.9687    2.6879  -15.3353 N   0  0  0  0  0  0  0  0  0  0  0  0
  -18.4274    1.4306  -15.4172 C   0  0  0  0  0  0  0  0  0  0  0  0
  -19.3901    0.5315  -15.0057 C   0  0  0  0  0  0  0  0  0  0  0  0
  -20.5527    1.2722  -14.6410 C   0  0  0  0  0  0  0  0  0  0  0  0
  -18.5100    3.5572  -15.5644 H   0  0  0  0  0  0  0  0  0  0  0  0
 21 22  1  0  0  0
 22 23  1  0  0  0
 22 26  1  0  0  0
 23 24  1  0  0  0
 24 25  1  0  0  0
 25 26  1  0  0  0
 26 20  1  0  0  0
 20 19  1  0  0  0
 19 12  1  0  0  0
 12 13  1  0  0  0
 12 17  2  0  0  0
 13 14  2  0  0  0
 14 10  1  0  0  0
 14 15  1  0  0  0
 10  1  1  0  0  0
 10 11  1  0  0  0
  1  2  2  0  0  0
  1  9  1  0  0  0
  2  3  1  0  0  0
  3  4  1  0  0  0
  3  8  2  0  0  0
  4  5  2  0  0  0
  5 27  1  0  0  0
  5  6  1  0  0  0
 27 28  1  0  0  0
 28 29  1  0  0  0
 28 36  2  0  0  0
 29 30  2  0  0  0
 30 31  1  0  0  0
 31 32  2  0  0  0
 32 33  1  0  0  0
 32 36  1  0  0  0
 33 34  1  0  0  0
 33 37  1  0  0  0
 34 35  2  0  0  0
 35 36  1  0  0  0
  6  7  2  0  0  0
  7  8  1  0  0  0
  8  9  1  0  0  0
 15 16  2  0  0  0
 16 17  1  0  0  0
 17 18  1  0  0  0
M  END
> <minimizedAffinity>
-11.57569

$$$$
