CHEMBL3093585


 41 46  0  0  0  0  0  0  0  0999 V2000
  -24.6541   -1.3380  -11.4300 C   0  0  0  0  0  0  0  0  0  0  0  0
  -23.8373   -2.1212  -12.2588 C   0  0  0  0  0  0  0  0  0  0  0  0
  -23.0781   -1.5389  -13.2977 C   0  0  0  0  0  0  0  0  0  0  0  0
  -23.1207   -0.1604  -13.5056 C   0  0  0  0  0  0  0  0  0  0  0  0
  -23.9012    0.6280  -12.6680 C   0  0  0  0  0  0  0  0  0  0  0  0
  -24.0211    1.9446  -12.8820 F   0  0  0  0  0  0  0  0  0  0  0  0
  -24.6461    0.0507  -11.6309 C   0  0  0  0  0  0  0  0  0  0  0  0
  -26.8920   -1.7112  -10.3198 C   0  0  0  0  0  0  0  0  0  0  0  0
  -27.6104   -1.0965  -11.1217 O   0  0  0  0  0  0  0  0  0  0  0  0
  -25.5157   -1.8529  -10.4215 N   0  0  0  0  0  0  0  0  0  0  0  0
  -25.0634   -2.3552   -9.6551 H   0  0  0  0  0  0  0  0  0  0  0  0
  -29.2909   -5.1260   -7.6162 C   0  0  0  0  0  0  0  0  0  0  0  0
  -28.3010   -4.0606   -7.8123 N   0  0  0  0  0  0  0  0  0  0  0  0
  -27.8408   -3.6679   -9.0722 C   0  0  0  0  0  0  0  0  0  0  0  0
  -27.5280   -2.3815   -9.1642 C   0  0  0  0  0  0  0  0  0  0  0  0
  -27.9307   -1.8008   -7.8487 C   0  0  0  0  0  0  0  0  0  0  0  0
  -27.7527   -0.6360   -7.5499 O   0  0  0  0  0  0  0  0  0  0  0  0
  -28.4584   -2.8509   -7.0879 N   0  0  0  0  0  0  0  0  0  0  0  0
  -28.6288   -2.8565   -5.6800 C   0  0  0  0  0  0  0  0  0  0  0  0
  -29.6150   -2.0550   -5.1091 C   0  0  0  0  0  0  0  0  0  0  0  0
  -29.8554   -2.1012   -3.7226 C   0  0  0  0  0  0  0  0  0  0  0  0
  -29.0512   -2.9037   -2.9046 C   0  0  0  0  0  0  0  0  0  0  0  0
  -28.0582   -3.6870   -3.4661 C   0  0  0  0  0  0  0  0  0  0  0  0
  -27.8544   -3.6713   -4.8548 C   0  0  0  0  0  0  0  0  0  0  0  0
  -22.5180    0.3475  -14.6853 O   0  0  0  0  0  0  0  0  0  0  0  0
  -21.2232    0.8630  -14.7309 C   0  0  0  0  0  0  0  0  0  0  0  0
  -21.2260    2.1977  -14.0806 C   0  0  0  0  0  0  0  0  0  0  0  0
  -20.1868    2.9970  -14.3611 C   0  0  0  0  0  0  0  0  0  0  0  0
  -18.9804    2.3286  -14.6801 C   0  0  0  0  0  0  0  0  0  0  0  0
  -17.7385    2.5892  -14.3191 N   0  0  0  0  0  0  0  0  0  0  0  0
  -17.0214    1.4831  -14.6727 C   0  0  0  0  0  0  0  0  0  0  0  0
  -17.8114    0.5918  -15.3665 C   0  0  0  0  0  0  0  0  0  0  0  0
  -19.0887    1.0403  -15.1783 N   0  0  0  0  0  0  0  0  0  0  0  0
  -20.2211    0.2873  -15.3121 N   0  0  0  0  0  0  0  0  0  0  0  0
  -15.7111    1.2203  -14.3431 N   0  0  0  0  0  0  0  0  0  0  0  0
  -15.2910    0.5383  -13.2278 C   0  0  0  0  0  0  0  0  0  0  0  0
  -15.9754    0.1349  -12.2983 O   0  0  0  0  0  0  0  0  0  0  0  0
  -15.0349    1.4347  -15.0572 H   0  0  0  0  0  0  0  0  0  0  0  0
  -13.8166    0.2357  -13.1729 C   0  0  0  0  0  0  0  0  0  0  0  0
  -12.9855    0.3666  -14.4290 C   0  0  0  0  0  0  0  0  0  0  0  0
  -13.1207   -0.9710  -13.7612 C   0  0  0  0  0  0  0  0  0  0  0  0
 12 13  1  0  0  0
 13 14  1  0  0  0
 13 18  1  0  0  0
 14 15  2  0  0  0
 15  8  1  0  0  0
 15 16  1  0  0  0
  8  9  2  0  0  0
  8 10  1  0  0  0
 10  1  1  0  0  0
 10 11  1  0  0  0
  1  2  1  0  0  0
  1  7  2  0  0  0
  2  3  2  0  0  0
  3  4  1  0  0  0
  4 25  1  0  0  0
  4  5  2  0  0  0
 25 26  1  0  0  0
 26 27  1  0  0  0
 26 34  2  0  0  0
 27 28  2  0  0  0
 28 29  1  0  0  0
 29 30  2  0  0  0
 29 33  1  0  0  0
 30 31  1  0  0  0
 31 35  1  0  0  0
 31 32  2  0  0  0
 35 36  1  0  0  0
 35 38  1  0  0  0
 36 37  2  0  0  0
 36 39  1  0  0  0
 39 40  1  0  0  0
 39 41  1  0  0  0
 40 41  1  0  0  0
 32 33  1  0  0  0
 33 34  1  0  0  0
  5  6  1  0  0  0
  5  7  1  0  0  0
 16 17  2  0  0  0
 16 18  1  0  0  0
 18 19  1  0  0  0
 19 20  1  0  0  0
 19 24  2  0  0  0
 20 21  2  0  0  0
 21 22  1  0  0  0
 22 23  2  0  0  0
 23 24  1  0  0  0
M  END
> <minimizedAffinity>
-10.91025

$$$$
