CHEMBL3741069


 38 43  0  0  0  0  0  0  0  0999 V2000
  -28.2494   -8.0929   -8.7526 C   0  0  0  0  0  0  0  0  0  0  0  0
  -28.3722   -6.9030   -7.8580 C   0  0  0  0  0  0  0  0  0  0  0  0
  -28.1455   -5.6603   -8.3926 N   0  0  0  0  0  0  0  0  0  0  0  0
  -28.3737   -4.6565   -7.4815 C   0  0  0  0  0  0  0  0  0  0  0  0
  -28.7887   -5.2821   -6.2988 C   0  0  0  0  0  0  0  0  0  0  0  0
  -28.7289   -6.7277   -6.5222 C   0  0  0  0  0  0  0  0  0  0  0  0
  -27.8595   -5.4955   -9.3483 H   0  0  0  0  0  0  0  0  0  0  0  0
  -28.1663   -3.2481   -7.8722 C   0  0  0  0  0  0  0  0  0  0  0  0
  -28.2105   -2.2195   -6.9170 C   0  0  0  0  0  0  0  0  0  0  0  0
  -27.9615   -0.8921   -7.2796 C   0  0  0  0  0  0  0  0  0  0  0  0
  -27.6346   -0.5781   -8.5956 C   0  0  0  0  0  0  0  0  0  0  0  0
  -27.6005   -1.5828   -9.5572 C   0  0  0  0  0  0  0  0  0  0  0  0
  -27.9005   -2.8995   -9.2027 C   0  0  0  0  0  0  0  0  0  0  0  0
  -29.1960   -4.5545   -5.0773 C   0  0  0  0  0  0  0  0  0  0  0  0
  -30.5465   -4.2864   -4.7991 C   0  0  0  0  0  0  0  0  0  0  0  0
  -30.9218   -3.5204   -3.6892 C   0  0  0  0  0  0  0  0  0  0  0  0
  -29.9607   -3.0941   -2.7791 C   0  0  0  0  0  0  0  0  0  0  0  0
  -28.6240   -3.4091   -2.9963 C   0  0  0  0  0  0  0  0  0  0  0  0
  -28.2440   -4.0965   -4.1546 C   0  0  0  0  0  0  0  0  0  0  0  0
  -29.0986   -7.7589   -5.5344 C   0  0  0  0  0  0  0  0  0  0  0  0
  -30.1346   -7.6625   -4.8872 O   0  0  0  0  0  0  0  0  0  0  0  0
  -28.1930   -8.8842   -5.3012 C   0  0  0  0  0  0  0  0  0  0  0  0
  -27.0967   -8.9083   -4.4592 C   0  0  0  0  0  0  0  0  0  0  0  0
  -26.5061  -10.1400   -4.5836 N   0  0  0  0  0  0  0  0  0  0  0  0
  -27.2555  -10.9646   -5.3487 N   0  0  0  0  0  0  0  0  0  0  0  0
  -28.2999  -10.2311   -5.7746 C   0  0  0  0  0  0  0  0  0  0  0  0
  -25.2667  -10.5750   -4.0246 C   0  0  0  0  0  0  0  0  0  0  0  0
  -24.0619  -10.4207   -4.7258 C   0  0  0  0  0  0  0  0  0  0  0  0
  -22.8613  -10.8612   -4.1592 C   0  0  0  0  0  0  0  0  0  0  0  0
  -22.8520  -11.4537   -2.8984 C   0  0  0  0  0  0  0  0  0  0  0  0
  -24.0482  -11.6163   -2.1997 C   0  0  0  0  0  0  0  0  0  0  0  0
  -25.2526  -11.1801   -2.7597 C   0  0  0  0  0  0  0  0  0  0  0  0
  -29.3643  -10.8703   -6.5727 C   0  0  0  0  0  0  0  0  0  0  0  0
  -30.6584  -10.9933   -6.0445 C   0  0  0  0  0  0  0  0  0  0  0  0
  -31.7075  -11.5043   -6.8139 C   0  0  0  0  0  0  0  0  0  0  0  0
  -31.4824  -11.8877   -8.1334 C   0  0  0  0  0  0  0  0  0  0  0  0
  -30.2007  -11.7969   -8.6680 C   0  0  0  0  0  0  0  0  0  0  0  0
  -29.1472  -11.3256   -7.8841 C   0  0  0  0  0  0  0  0  0  0  0  0
  1  2  1  0  0  0
  2  3  1  0  0  0
  2  6  2  0  0  0
  3  4  1  0  0  0
  3  7  1  0  0  0
  4  8  1  0  0  0
  4  5  2  0  0  0
  8  9  1  0  0  0
  8 13  2  0  0  0
  9 10  2  0  0  0
 10 11  1  0  0  0
 11 12  2  0  0  0
 12 13  1  0  0  0
  5 14  1  0  0  0
  5  6  1  0  0  0
 14 15  1  0  0  0
 14 19  2  0  0  0
 15 16  2  0  0  0
 16 17  1  0  0  0
 17 18  2  0  0  0
 18 19  1  0  0  0
  6 20  1  0  0  0
 20 21  2  0  0  0
 20 22  1  0  0  0
 22 23  2  0  0  0
 22 26  1  0  0  0
 23 24  1  0  0  0
 24 27  1  0  0  0
 24 25  1  0  0  0
 27 28  1  0  0  0
 27 32  2  0  0  0
 28 29  2  0  0  0
 29 30  1  0  0  0
 30 31  2  0  0  0
 31 32  1  0  0  0
 25 26  2  0  0  0
 26 33  1  0  0  0
 33 34  1  0  0  0
 33 38  2  0  0  0
 34 35  2  0  0  0
 35 36  1  0  0  0
 36 37  2  0  0  0
 37 38  1  0  0  0
M  END
> <minimizedAffinity>
-9.04317

$$$$
