CHEMBL2023489


 33 36  0  0  0  0  0  0  0  0999 V2000
  -30.2850   -6.7159   -5.3710 C   0  0  0  0  0  0  0  0  0  0  0  0
  -29.0888   -7.1317   -4.7959 C   0  0  0  0  0  0  0  0  0  0  0  0
  -28.3237   -8.1091   -5.4375 C   0  0  0  0  0  0  0  0  0  0  0  0
  -28.7765   -8.7448   -6.6123 C   0  0  0  0  0  0  0  0  0  0  0  0
  -30.0994   -8.5026   -7.0251 C   0  0  0  0  0  0  0  0  0  0  0  0
  -30.8271   -7.4638   -6.4228 C   0  0  0  0  0  0  0  0  0  0  0  0
  -30.7600   -9.1073   -8.0640 O   0  0  0  0  0  0  0  0  0  0  0  0
  -32.1475   -9.3833   -7.9177 C   0  0  0  0  0  0  0  0  0  0  0  0
  -30.9729   -5.5831   -5.0134 O   0  0  0  0  0  0  0  0  0  0  0  0
  -27.9965   -2.2586   -7.7879 C   0  0  0  0  0  0  0  0  0  0  0  0
  -28.6223   -3.4327   -8.1604 C   0  0  0  0  0  0  0  0  0  0  0  0
  -29.4923   -4.0616   -7.2797 C   0  0  0  0  0  0  0  0  0  0  0  0
  -29.6479   -3.6348   -5.9417 C   0  0  0  0  0  0  0  0  0  0  0  0
  -30.3534   -4.3383   -4.9265 C   0  0  0  0  0  0  0  0  0  0  0  0
  -30.5219   -3.7431   -3.6776 C   0  0  0  0  0  0  0  0  0  0  0  0
  -29.9331   -2.5182   -3.4503 C   0  0  0  0  0  0  0  0  0  0  0  0
  -29.1872   -1.8652   -4.3600 N   0  0  0  0  0  0  0  0  0  0  0  0
  -29.0345   -2.4146   -5.5801 C   0  0  0  0  0  0  0  0  0  0  0  0
  -28.2367   -1.7465   -6.5072 C   0  0  0  0  0  0  0  0  0  0  0  0
  -27.3647   -1.6907   -9.9980 C   0  0  0  0  0  0  0  0  0  0  0  0
  -27.1608   -1.5340   -8.5932 O   0  0  0  0  0  0  0  0  0  0  0  0
  -27.8442   -9.6434   -7.3873 C   0  0  0  0  0  0  0  0  0  0  0  0
  -26.7905  -10.3610   -6.5773 C   0  0  0  0  0  0  0  0  0  0  0  0
  -27.0794  -11.3882   -5.9586 O   0  0  0  0  0  0  0  0  0  0  0  0
  -25.5499   -9.7500   -6.6137 N   0  0  0  0  0  0  0  0  0  0  0  0
  -25.4677   -8.8180   -7.0030 H   0  0  0  0  0  0  0  0  0  0  0  0
  -24.4179  -10.2923   -6.0289 C   0  0  0  0  0  0  0  0  0  0  0  0
  -23.4028  -10.9571   -6.6696 C   0  0  0  0  0  0  0  0  0  0  0  0
  -22.5152  -11.3283   -5.7145 N   0  0  0  0  0  0  0  0  0  0  0  0
  -21.2893  -12.0552   -5.9200 C   0  0  0  0  0  0  0  0  0  0  0  0
  -22.8749  -10.9449   -4.4727 N   0  0  0  0  0  0  0  0  0  0  0  0
  -24.0317  -10.2919   -4.6605 C   0  0  0  0  0  0  0  0  0  0  0  0
  -24.7506   -9.7291   -3.4923 C   0  0  0  0  0  0  0  0  0  0  0  0
 20 21  1  0  0  0
 21 10  1  0  0  0
 10 11  1  0  0  0
 10 19  2  0  0  0
 11 12  2  0  0  0
 12 13  1  0  0  0
 13 14  1  0  0  0
 13 18  2  0  0  0
 14  9  1  0  0  0
 14 15  2  0  0  0
  9  1  1  0  0  0
  1  2  1  0  0  0
  1  6  2  0  0  0
  2  3  2  0  0  0
  3  4  1  0  0  0
  4 22  1  0  0  0
  4  5  2  0  0  0
 22 23  1  0  0  0
 23 24  2  0  0  0
 23 25  1  0  0  0
 25 27  1  0  0  0
 25 26  1  0  0  0
 27 28  2  0  0  0
 27 32  1  0  0  0
 28 29  1  0  0  0
 29 30  1  0  0  0
 29 31  1  0  0  0
 31 32  2  0  0  0
 32 33  1  0  0  0
  5  7  1  0  0  0
  5  6  1  0  0  0
  7  8  1  0  0  0
 15 16  1  0  0  0
 16 17  2  0  0  0
 17 18  1  0  0  0
 18 19  1  0  0  0
M  END
> <minimizedAffinity>
-8.87050

$$$$
