CHEMBL2088259


 35 38  0  0  0  0  0  0  0  0999 V2000
  -29.1255   -6.8719   -4.4600 C   0  0  0  0  0  0  0  0  0  0  0  0
  -29.3348   -6.0162   -5.5230 C   0  0  0  0  0  0  0  0  0  0  0  0
  -29.4685   -4.7293   -4.9503 C   0  0  0  0  0  0  0  0  0  0  0  0
  -29.2622   -4.7745   -3.6316 N   0  0  0  0  0  0  0  0  0  0  0  0
  -29.0320   -6.0607   -3.3661 N   0  0  0  0  0  0  0  0  0  0  0  0
  -28.8615   -6.3165   -2.3990 H   0  0  0  0  0  0  0  0  0  0  0  0
  -29.7912   -3.6429   -5.6780 N   0  0  0  0  0  0  0  0  0  0  0  0
  -30.7433   -3.3089   -5.7245 H   0  0  0  0  0  0  0  0  0  0  0  0
  -28.9619   -2.7630   -6.3853 C   0  0  0  0  0  0  0  0  0  0  0  0
  -28.6137   -1.5188   -5.9041 C   0  0  0  0  0  0  0  0  0  0  0  0
  -27.8530   -0.7324   -6.7258 C   0  0  0  0  0  0  0  0  0  0  0  0
  -27.4230   -1.1289   -7.9327 N   0  0  0  0  0  0  0  0  0  0  0  0
  -27.7890   -2.3538   -8.3225 C   0  0  0  0  0  0  0  0  0  0  0  0
  -28.5550   -3.1828   -7.5973 N   0  0  0  0  0  0  0  0  0  0  0  0
  -27.3319   -2.7360   -9.5760 N   0  0  0  0  0  0  0  0  0  0  0  0
  -27.8524   -3.5762   -9.8087 H   0  0  0  0  0  0  0  0  0  0  0  0
  -27.4488   -1.6848  -10.5753 C   0  0  0  0  0  0  0  0  0  0  0  0
  -26.2098   -1.6434  -11.4528 C   0  0  0  0  0  0  0  0  0  0  0  0
  -26.3383   -1.5795  -12.8408 C   0  0  0  0  0  0  0  0  0  0  0  0
  -25.1893   -1.5707  -13.6262 C   0  0  0  0  0  0  0  0  0  0  0  0
  -23.9453   -1.6277  -13.0113 C   0  0  0  0  0  0  0  0  0  0  0  0
  -23.9021   -1.6871  -11.6288 C   0  0  0  0  0  0  0  0  0  0  0  0
  -24.9992   -1.6951  -10.8391 N   0  0  0  0  0  0  0  0  0  0  0  0
  -29.0144   -8.3555   -4.3961 C   0  0  0  0  0  0  0  0  0  0  0  0
  -28.0720   -8.9379   -5.4580 C   0  0  0  0  0  0  0  0  0  0  0  0
  -30.8493   -9.6418   -7.9635 C   0  0  0  0  0  0  0  0  0  0  0  0
  -30.1875   -9.3605   -6.7703 C   0  0  0  0  0  0  0  0  0  0  0  0
  -28.7951   -9.1927   -6.7541 C   0  0  0  0  0  0  0  0  0  0  0  0
  -28.0670   -9.3132   -7.9458 C   0  0  0  0  0  0  0  0  0  0  0  0
  -28.7179   -9.6059   -9.1423 C   0  0  0  0  0  0  0  0  0  0  0  0
  -30.1067   -9.7599   -9.1428 C   0  0  0  0  0  0  0  0  0  0  0  0
  -33.0479   -8.9731   -7.3545 C   0  0  0  0  0  0  0  0  0  0  0  0
  -32.1966   -9.8296   -8.1074 O   0  0  0  0  0  0  0  0  0  0  0  0
  -28.1095   -9.7774  -10.3557 O   0  0  0  0  0  0  0  0  0  0  0  0
  -28.8549  -10.4674  -11.3531 C   0  0  0  0  0  0  0  0  0  0  0  0
 32 33  1  0  0  0
 33 26  1  0  0  0
 26 27  1  0  0  0
 26 31  2  0  0  0
 27 28  2  0  0  0
 28 25  1  0  0  0
 28 29  1  0  0  0
 25 24  1  0  0  0
 24  1  1  0  0  0
  1  2  2  0  0  0
  1  5  1  0  0  0
  2  3  1  0  0  0
  3  7  1  0  0  0
  3  4  2  0  0  0
  7  9  1  0  0  0
  7  8  1  0  0  0
  9 10  1  0  0  0
  9 14  2  0  0  0
 10 11  2  0  0  0
 11 12  1  0  0  0
 12 13  2  0  0  0
 13 15  1  0  0  0
 13 14  1  0  0  0
 15 17  1  0  0  0
 15 16  1  0  0  0
 17 18  1  0  0  0
 18 19  1  0  0  0
 18 23  2  0  0  0
 19 20  2  0  0  0
 20 21  1  0  0  0
 21 22  2  0  0  0
 22 23  1  0  0  0
  4  5  1  0  0  0
  5  6  1  0  0  0
 29 30  2  0  0  0
 30 34  1  0  0  0
 30 31  1  0  0  0
 34 35  1  0  0  0
M  END
> <minimizedAffinity>
-8.83562

$$$$
