CHEMBL4062187


 36 40  0  0  0  0  0  0  0  0999 V2000
  -30.3834   -7.5402   -7.0507 N   0  0  0  0  0  0  0  0  0  0  0  0
  -29.5682   -8.3681   -7.8036 C   0  0  0  0  0  0  0  0  0  0  0  0
  -28.4351   -8.0890   -8.1836 O   0  0  0  0  0  0  0  0  0  0  0  0
  -30.1344   -9.6101   -8.0316 N   0  0  0  0  0  0  0  0  0  0  0  0
  -31.1723   -7.9725   -6.5936 H   0  0  0  0  0  0  0  0  0  0  0  0
  -31.1366   -9.6420   -8.1312 H   0  0  0  0  0  0  0  0  0  0  0  0
  -29.5054   -3.4781   -6.0791 C   0  0  0  0  0  0  0  0  0  0  0  0
  -29.0576   -4.5296   -5.2856 C   0  0  0  0  0  0  0  0  0  0  0  0
  -29.3870   -5.8533   -5.5637 C   0  0  0  0  0  0  0  0  0  0  0  0
  -30.0818   -6.1980   -6.7201 C   0  0  0  0  0  0  0  0  0  0  0  0
  -30.4511   -5.1716   -7.5917 C   0  0  0  0  0  0  0  0  0  0  0  0
  -30.1803   -3.8275   -7.2646 C   0  0  0  0  0  0  0  0  0  0  0  0
  -27.5815   -2.1995   -8.8270 C   0  0  0  0  0  0  0  0  0  0  0  0
  -27.8126   -1.1447   -7.8006 C   0  0  0  0  0  0  0  0  0  0  0  0
  -27.3085    0.0724   -8.0661 N   0  0  0  0  0  0  0  0  0  0  0  0
  -27.6390    0.8001   -6.9908 N   0  0  0  0  0  0  0  0  0  0  0  0
  -28.3380    0.1146   -6.0477 C   0  0  0  0  0  0  0  0  0  0  0  0
  -28.7744    0.6408   -4.8892 N   0  0  0  0  0  0  0  0  0  0  0  0
  -29.4503   -0.2436   -4.1339 C   0  0  0  0  0  0  0  0  0  0  0  0
  -29.6967   -1.5655   -4.4734 C   0  0  0  0  0  0  0  0  0  0  0  0
  -29.2217   -2.0870   -5.6938 C   0  0  0  0  0  0  0  0  0  0  0  0
  -28.4960   -1.1832   -6.5308 C   0  0  0  0  0  0  0  0  0  0  0  0
  -27.3611    1.7697   -6.9482 H   0  0  0  0  0  0  0  0  0  0  0  0
  -29.4329  -10.5162   -8.8744 C   0  0  0  0  0  0  0  0  0  0  0  0
  -29.4096  -10.2855  -10.2605 C   0  0  0  0  0  0  0  0  0  0  0  0
  -28.7019  -11.1414  -11.0970 C   0  0  0  0  0  0  0  0  0  0  0  0
  -28.0173  -12.2230  -10.5537 C   0  0  0  0  0  0  0  0  0  0  0  0
  -28.0642  -12.4658   -9.1760 C   0  0  0  0  0  0  0  0  0  0  0  0
  -28.7875  -11.6307   -8.3080 C   0  0  0  0  0  0  0  0  0  0  0  0
  -28.9019  -11.9078   -6.9474 N   0  0  0  0  0  0  0  0  0  0  0  0
  -30.1484  -12.4653   -6.4145 C   0  0  0  0  0  0  0  0  0  0  0  0
  -30.2638  -12.0405   -4.9334 C   0  0  0  0  0  0  0  0  0  0  0  0
  -29.1041  -12.4651   -4.1115 N   0  0  0  0  0  0  0  0  0  0  0  0
  -29.2247  -11.9220   -2.7602 C   0  0  0  0  0  0  0  0  0  0  0  0
  -27.8366  -12.0141   -4.7434 C   0  0  0  0  0  0  0  0  0  0  0  0
  -27.7172  -12.4230   -6.2341 C   0  0  0  0  0  0  0  0  0  0  0  0
 13 14  1  0  0  0
 14 15  2  0  0  0
 14 22  1  0  0  0
 15 16  1  0  0  0
 16 17  1  0  0  0
 16 23  1  0  0  0
 17 18  1  0  0  0
 17 22  2  0  0  0
 18 19  2  0  0  0
 19 20  1  0  0  0
 20 21  2  0  0  0
 21  7  1  0  0  0
 21 22  1  0  0  0
  7  8  1  0  0  0
  7 12  2  0  0  0
  8  9  2  0  0  0
  9 10  1  0  0  0
 10  1  1  0  0  0
 10 11  2  0  0  0
  1  2  1  0  0  0
  1  5  1  0  0  0
  2  3  2  0  0  0
  2  4  1  0  0  0
  4 24  1  0  0  0
  4  6  1  0  0  0
 24 25  1  0  0  0
 24 29  2  0  0  0
 25 26  2  0  0  0
 26 27  1  0  0  0
 27 28  2  0  0  0
 28 29  1  0  0  0
 29 30  1  0  0  0
 30 31  1  0  0  0
 30 36  1  0  0  0
 31 32  1  0  0  0
 32 33  1  0  0  0
 33 34  1  0  0  0
 33 35  1  0  0  0
 35 36  1  0  0  0
 11 12  1  0  0  0
M  END
> <minimizedAffinity>
-5.76608

$$$$
