CHEMBL191523


 21 23  0  0  0  0  0  0  0  0999 V2000
  -29.0442   -6.6963   -7.3654 C   0  0  0  0  0  0  0  0  0  0  0  0
  -29.5992   -7.7923   -7.9019 C   0  0  0  0  0  0  0  0  0  0  0  0
  -30.9990   -8.3640   -7.8119 C   0  0  0  0  0  0  0  0  0  0  0  0
  -31.9605   -7.9255   -7.2070 O   0  0  0  0  0  0  0  0  0  0  0  0
  -30.9440   -9.5047   -8.5766 N   0  0  0  0  0  0  0  0  0  0  0  0
  -32.0166  -10.3699   -8.7919 O   0  0  0  0  0  0  0  0  0  0  0  0
  -29.7007   -9.7388   -9.1481 C   0  0  0  0  0  0  0  0  0  0  0  0
  -29.3039  -10.7778   -9.9668 C   0  0  0  0  0  0  0  0  0  0  0  0
  -27.9807  -10.7764  -10.4141 C   0  0  0  0  0  0  0  0  0  0  0  0
  -27.0940   -9.7512  -10.0381 C   0  0  0  0  0  0  0  0  0  0  0  0
  -27.5152   -8.7090   -9.2084 C   0  0  0  0  0  0  0  0  0  0  0  0
  -28.8276   -8.7140   -8.7658 C   0  0  0  0  0  0  0  0  0  0  0  0
  -32.7231   -9.9354   -8.2738 H   0  0  0  0  0  0  0  0  0  0  0  0
  -31.5552   -4.9312   -3.5269 C   0  0  0  0  0  0  0  0  0  0  0  0
  -30.7665   -4.8667   -4.7793 C   0  0  0  0  0  0  0  0  0  0  0  0
  -30.3477   -3.8009   -5.5436 C   0  0  0  0  0  0  0  0  0  0  0  0
  -29.6197   -4.3189   -6.6504 C   0  0  0  0  0  0  0  0  0  0  0  0
  -28.9844   -3.5184   -7.7332 C   0  0  0  0  0  0  0  0  0  0  0  0
  -29.6180   -5.7045   -6.5286 C   0  0  0  0  0  0  0  0  0  0  0  0
  -30.3137   -6.0107   -5.3865 N   0  0  0  0  0  0  0  0  0  0  0  0
  -30.4803   -6.9464   -5.0302 H   0  0  0  0  0  0  0  0  0  0  0  0
 14 15  1  0  0  0
 15 16  2  0  0  0
 15 20  1  0  0  0
 16 17  1  0  0  0
 17 18  1  0  0  0
 17 19  2  0  0  0
 19  1  1  0  0  0
 19 20  1  0  0  0
  1  2  2  0  0  0
  2  3  1  0  0  0
  2 12  1  0  0  0
  3  4  2  0  0  0
  3  5  1  0  0  0
  5  6  1  0  0  0
  5  7  1  0  0  0
  6 13  1  0  0  0
  7  8  1  0  0  0
  7 12  2  0  0  0
  8  9  2  0  0  0
  9 10  1  0  0  0
 10 11  2  0  0  0
 11 12  1  0  0  0
 20 21  1  0  0  0
M  END
> <minimizedAffinity>
-8.10581

$$$$
