CHEMBL3939257


 33 36  0  0  0  0  0  0  0  0999 V2000
  -14.6906    4.1478  -16.5380 C   0  0  0  0  0  0  0  0  0  0  0  0
  -15.9783    3.6793  -16.2558 C   0  0  0  0  0  0  0  0  0  0  0  0
  -16.1815    2.4540  -15.6086 C   0  0  0  0  0  0  0  0  0  0  0  0
  -15.0975    1.6536  -15.2548 C   0  0  0  0  0  0  0  0  0  0  0  0
  -13.8146    2.0562  -15.6375 C   0  0  0  0  0  0  0  0  0  0  0  0
  -13.6121    3.2922  -16.2843 C   0  0  0  0  0  0  0  0  0  0  0  0
  -15.2325    5.2044  -19.1668 O   0  0  0  0  0  0  0  0  0  0  0  0
  -14.7479    5.9134  -18.2910 C   0  0  0  0  0  0  0  0  0  0  0  0
  -14.4301    5.4649  -17.0136 N   0  0  0  0  0  0  0  0  0  0  0  0
  -14.4683    7.2646  -18.4671 N   0  0  0  0  0  0  0  0  0  0  0  0
  -14.2855    6.1760  -16.3125 H   0  0  0  0  0  0  0  0  0  0  0  0
  -13.7680    7.6619  -17.8581 H   0  0  0  0  0  0  0  0  0  0  0  0
  -14.7877    7.9999  -19.6422 C   0  0  0  0  0  0  0  0  0  0  0  0
  -14.1166    7.8140  -20.8566 C   0  0  0  0  0  0  0  0  0  0  0  0
  -14.4014    8.6065  -21.9699 C   0  0  0  0  0  0  0  0  0  0  0  0
  -15.3612    9.6072  -21.8826 C   0  0  0  0  0  0  0  0  0  0  0  0
  -16.0671    9.8033  -20.6876 C   0  0  0  0  0  0  0  0  0  0  0  0
  -15.8006    8.9659  -19.5819 C   0  0  0  0  0  0  0  0  0  0  0  0
  -17.0616   10.9327  -20.5733 C   0  0  0  0  0  0  0  0  0  0  0  0
  -16.5778   12.0206  -19.9097 F   0  0  0  0  0  0  0  0  0  0  0  0
  -17.4812   11.3901  -21.7843 F   0  0  0  0  0  0  0  0  0  0  0  0
  -18.1882   10.5628  -19.9022 F   0  0  0  0  0  0  0  0  0  0  0  0
  -15.3175    0.4644  -14.4772 C   0  0  0  0  0  0  0  0  0  0  0  0
  -15.4701   -0.5403  -13.8260 C   0  0  0  0  0  0  0  0  0  0  0  0
  -15.7379   -1.7385  -13.0563 C   0  0  0  0  0  0  0  0  0  0  0  0
  -15.6698   -1.6993  -11.5722 C   0  0  0  0  0  0  0  0  0  0  0  0
  -15.9357   -2.8379  -10.9221 C   0  0  0  0  0  0  0  0  0  0  0  0
  -16.2563   -3.9968  -11.6623 C   0  0  0  0  0  0  0  0  0  0  0  0
  -16.5513   -5.2168  -11.2670 N   0  0  0  0  0  0  0  0  0  0  0  0
  -16.7691   -5.9232  -12.4222 C   0  0  0  0  0  0  0  0  0  0  0  0
  -16.6049   -5.1221  -13.5296 C   0  0  0  0  0  0  0  0  0  0  0  0
  -16.2758   -3.8820  -13.0473 N   0  0  0  0  0  0  0  0  0  0  0  0
  -16.0210   -2.7620  -13.7948 N   0  0  0  0  0  0  0  0  0  0  0  0
  7  8  2  0  0  0
  8  9  1  0  0  0
  8 10  1  0  0  0
  9  1  1  0  0  0
  9 11  1  0  0  0
  1  2  1  0  0  0
  1  6  2  0  0  0
  2  3  2  0  0  0
  3  4  1  0  0  0
  4 23  1  0  0  0
  4  5  2  0  0  0
 23 24  3  0  0  0
 24 25  1  0  0  0
 25 26  1  0  0  0
 25 33  2  0  0  0
 26 27  2  0  0  0
 27 28  1  0  0  0
 28 29  2  0  0  0
 28 32  1  0  0  0
 29 30  1  0  0  0
 30 31  2  0  0  0
 31 32  1  0  0  0
 32 33  1  0  0  0
  5  6  1  0  0  0
 10 13  1  0  0  0
 10 12  1  0  0  0
 13 14  1  0  0  0
 13 18  2  0  0  0
 14 15  2  0  0  0
 15 16  1  0  0  0
 16 17  2  0  0  0
 17 19  1  0  0  0
 17 18  1  0  0  0
 19 20  1  0  0  0
 19 21  1  0  0  0
 19 22  1  0  0  0
M  END
> <minimizedAffinity>
-7.77014

$$$$
