CHEMBL3690467


 33 36  0  0  0  0  0  0  0  0999 V2000
  -18.6948    2.2299  -15.0329 C   0  0  0  0  0  0  0  0  0  0  0  0
  -18.0975    0.9736  -14.8676 C   0  0  0  0  0  0  0  0  0  0  0  0
  -16.8137    0.7231  -15.3292 C   0  0  0  0  0  0  0  0  0  0  0  0
  -16.1363    1.7009  -16.0470 C   0  0  0  0  0  0  0  0  0  0  0  0
  -16.7232    2.9366  -16.3156 C   0  0  0  0  0  0  0  0  0  0  0  0
  -17.9865    3.2143  -15.7616 C   0  0  0  0  0  0  0  0  0  0  0  0
  -23.3521    0.1133  -13.6275 C   0  0  0  0  0  0  0  0  0  0  0  0
  -22.1273   -0.5849  -13.9960 C   0  0  0  0  0  0  0  0  0  0  0  0
  -21.0163    0.1182  -14.2651 C   0  0  0  0  0  0  0  0  0  0  0  0
  -21.0514    1.5167  -14.2710 N   0  0  0  0  0  0  0  0  0  0  0  0
  -20.0686    2.4691  -14.5587 C   0  0  0  0  0  0  0  0  0  0  0  0
  -20.7246    3.6796  -14.3817 C   0  0  0  0  0  0  0  0  0  0  0  0
  -22.0310    3.5205  -14.0124 N   0  0  0  0  0  0  0  0  0  0  0  0
  -22.2196    2.2220  -13.9674 C   0  0  0  0  0  0  0  0  0  0  0  0
  -23.3849    1.4665  -13.6365 C   0  0  0  0  0  0  0  0  0  0  0  0
  -25.3001   -1.0915  -15.5296 C   0  0  0  0  0  0  0  0  0  0  0  0
  -25.4795   -1.1539  -14.0409 C   0  0  0  0  0  0  0  0  0  0  0  0
  -26.6134   -1.7676  -13.4981 C   0  0  0  0  0  0  0  0  0  0  0  0
  -26.7720   -1.8351  -12.1194 C   0  0  0  0  0  0  0  0  0  0  0  0
  -25.7885   -1.2793  -11.3202 C   0  0  0  0  0  0  0  0  0  0  0  0
  -24.6881   -0.6622  -11.8010 N   0  0  0  0  0  0  0  0  0  0  0  0
  -24.5459   -0.6089  -13.1471 C   0  0  0  0  0  0  0  0  0  0  0  0
  -16.1038    3.9043  -17.1567 N   0  0  0  0  0  0  0  0  0  0  0  0
  -14.9675    4.6192  -16.8413 C   0  0  0  0  0  0  0  0  0  0  0  0
  -14.3207    4.5486  -15.7987 O   0  0  0  0  0  0  0  0  0  0  0  0
  -14.5889    5.5199  -17.8040 N   0  0  0  0  0  0  0  0  0  0  0  0
  -16.4795    4.0188  -18.0816 H   0  0  0  0  0  0  0  0  0  0  0  0
  -14.8518    5.3419  -18.7620 H   0  0  0  0  0  0  0  0  0  0  0  0
  -13.3795    6.3213  -17.5500 C   0  0  0  0  0  0  0  0  0  0  0  0
  -13.3158    7.7093  -18.2088 C   0  0  0  0  0  0  0  0  0  0  0  0
  -12.6064    7.7055  -19.3592 F   0  0  0  0  0  0  0  0  0  0  0  0
  -14.5708    8.1220  -18.5238 F   0  0  0  0  0  0  0  0  0  0  0  0
  -12.7864    8.6433  -17.3896 F   0  0  0  0  0  0  0  0  0  0  0  0
 16 17  1  0  0  0
 17 18  1  0  0  0
 17 22  2  0  0  0
 18 19  2  0  0  0
 19 20  1  0  0  0
 20 21  2  0  0  0
 21 22  1  0  0  0
 22  7  1  0  0  0
  7  8  1  0  0  0
  7 15  2  0  0  0
  8  9  2  0  0  0
  9 10  1  0  0  0
 10 11  1  0  0  0
 10 14  1  0  0  0
 11  1  1  0  0  0
 11 12  2  0  0  0
  1  2  1  0  0  0
  1  6  2  0  0  0
  2  3  2  0  0  0
  3  4  1  0  0  0
  4  5  2  0  0  0
  5 23  1  0  0  0
  5  6  1  0  0  0
 23 24  1  0  0  0
 23 27  1  0  0  0
 24 25  2  0  0  0
 24 26  1  0  0  0
 26 29  1  0  0  0
 26 28  1  0  0  0
 29 30  1  0  0  0
 30 31  1  0  0  0
 30 32  1  0  0  0
 30 33  1  0  0  0
 12 13  1  0  0  0
 13 14  2  0  0  0
 14 15  1  0  0  0
M  END
> <minimizedAffinity>
-9.69368

$$$$
