CHEMBL258437


 27 32  0  0  0  0  0  0  0  0999 V2000
  -27.7424   -1.2588   -4.7228 C   0  0  0  0  0  0  0  0  0  0  0  0
  -28.3106   -2.5693   -4.9310 N   0  0  0  0  0  0  0  0  0  0  0  0
  -27.8139   -3.8442   -4.6619 C   0  0  0  0  0  0  0  0  0  0  0  0
  -28.7358   -4.7699   -5.1711 C   0  0  0  0  0  0  0  0  0  0  0  0
  -29.4573   -3.8818   -6.0765 C   0  0  0  0  0  0  0  0  0  0  0  0
  -29.3480   -2.6006   -5.7802 N   0  0  0  0  0  0  0  0  0  0  0  0
  -29.9449   -4.2762   -7.4330 C   0  0  0  0  0  0  0  0  0  0  0  0
  -30.1685   -5.7520   -7.3776 C   0  0  0  0  0  0  0  0  0  0  0  0
  -28.8300   -6.3286   -6.9497 C   0  0  0  0  0  0  0  0  0  0  0  0
  -28.5042   -6.1861   -5.5864 C   0  0  0  0  0  0  0  0  0  0  0  0
  -28.6449   -7.4699   -4.9869 C   0  0  0  0  0  0  0  0  0  0  0  0
  -28.4668   -8.7070   -5.7524 C   0  0  0  0  0  0  0  0  0  0  0  0
  -28.0373   -8.5618   -7.0951 C   0  0  0  0  0  0  0  0  0  0  0  0
  -28.1979   -7.3230   -7.6359 C   0  0  0  0  0  0  0  0  0  0  0  0
  -27.9044   -7.4504   -8.9532 N   0  0  0  0  0  0  0  0  0  0  0  0
  -27.5526   -8.7492   -9.2363 C   0  0  0  0  0  0  0  0  0  0  0  0
  -27.1230   -9.2484  -10.4666 C   0  0  0  0  0  0  0  0  0  0  0  0
  -27.0160  -10.6302  -10.5721 C   0  0  0  0  0  0  0  0  0  0  0  0
  -27.3365  -11.4564   -9.4946 C   0  0  0  0  0  0  0  0  0  0  0  0
  -27.6894  -10.9289   -8.2310 C   0  0  0  0  0  0  0  0  0  0  0  0
  -27.7762   -9.5308   -8.0809 C   0  0  0  0  0  0  0  0  0  0  0  0
  -29.0261   -9.8804   -5.0733 C   0  0  0  0  0  0  0  0  0  0  0  0
  -29.5070   -9.2334   -3.8642 N   0  0  0  0  0  0  0  0  0  0  0  0
  -29.2951   -7.8466   -3.7621 C   0  0  0  0  0  0  0  0  0  0  0  0
  -29.7362   -7.2048   -2.8118 O   0  0  0  0  0  0  0  0  0  0  0  0
  -27.9109   -6.6903   -9.6136 H   0  0  0  0  0  0  0  0  0  0  0  0
  -30.1780   -9.6685   -3.2453 H   0  0  0  0  0  0  0  0  0  0  0  0
  1  2  1  0  0  0
  2  3  1  0  0  0
  2  6  1  0  0  0
  3  4  2  0  0  0
  4  5  1  0  0  0
  4 10  1  0  0  0
  5  6  2  0  0  0
  5  7  1  0  0  0
  7  8  1  0  0  0
  8  9  1  0  0  0
  9 10  1  0  0  0
  9 14  2  0  0  0
 10 11  2  0  0  0
 11 12  1  0  0  0
 11 24  1  0  0  0
 12 13  2  0  0  0
 12 22  1  0  0  0
 13 14  1  0  0  0
 13 21  1  0  0  0
 14 15  1  0  0  0
 15 16  1  0  0  0
 15 26  1  0  0  0
 16 17  1  0  0  0
 16 21  2  0  0  0
 17 18  2  0  0  0
 18 19  1  0  0  0
 19 20  2  0  0  0
 20 21  1  0  0  0
 22 23  1  0  0  0
 23 24  1  0  0  0
 23 27  1  0  0  0
 24 25  2  0  0  0
M  END
> <minimizedAffinity>
-9.04072

$$$$
