CHEMBL3690438


 41 45  0  0  0  0  0  0  0  0999 V2000
  -26.1261   -1.4700  -10.6567 C   0  0  0  0  0  0  0  0  0  0  0  0
  -25.1356   -0.4082  -10.4543 C   0  0  0  0  0  0  0  0  0  0  0  0
  -24.4478    0.0777  -11.5014 C   0  0  0  0  0  0  0  0  0  0  0  0
  -24.6309   -0.4704  -12.7770 N   0  0  0  0  0  0  0  0  0  0  0  0
  -24.0142   -0.2079  -14.0063 C   0  0  0  0  0  0  0  0  0  0  0  0
  -24.6829   -1.0367  -14.8940 C   0  0  0  0  0  0  0  0  0  0  0  0
  -25.6301   -1.8070  -14.2800 N   0  0  0  0  0  0  0  0  0  0  0  0
  -25.5597   -1.4809  -13.0102 C   0  0  0  0  0  0  0  0  0  0  0  0
  -26.2898   -1.9842  -11.8966 C   0  0  0  0  0  0  0  0  0  0  0  0
  -28.4394   -2.9798   -7.4176 C   0  0  0  0  0  0  0  0  0  0  0  0
  -28.2459   -1.6113   -7.5502 C   0  0  0  0  0  0  0  0  0  0  0  0
  -27.5116   -1.0939   -8.6055 C   0  0  0  0  0  0  0  0  0  0  0  0
  -26.9858   -1.9600   -9.5477 C   0  0  0  0  0  0  0  0  0  0  0  0
  -27.1892   -3.2892   -9.4287 N   0  0  0  0  0  0  0  0  0  0  0  0
  -27.9396   -3.7974   -8.3661 N   0  0  0  0  0  0  0  0  0  0  0  0
  -31.6625   -4.5903   -3.9654 N   0  0  0  0  0  0  0  0  0  0  0  0
  -30.1958   -4.5779   -3.9490 C   0  0  0  0  0  0  0  0  0  0  0  0
  -29.6622   -3.1330   -4.0166 C   0  0  0  0  0  0  0  0  0  0  0  0
  -29.8088   -2.5070   -5.4136 C   0  0  0  0  0  0  0  0  0  0  0  0
  -29.1824   -3.4325   -6.3457 N   0  0  0  0  0  0  0  0  0  0  0  0
  -29.8352   -4.7353   -6.4456 C   0  0  0  0  0  0  0  0  0  0  0  0
  -29.6454   -5.4311   -5.1020 C   0  0  0  0  0  0  0  0  0  0  0  0
  -32.0156   -4.0953   -3.1465 H   0  0  0  0  0  0  0  0  0  0  0  0
  -31.9991   -5.5495   -3.8804 H   0  0  0  0  0  0  0  0  0  0  0  0
  -22.8625    0.6746  -14.2518 C   0  0  0  0  0  0  0  0  0  0  0  0
  -22.9631    2.0469  -13.9925 C   0  0  0  0  0  0  0  0  0  0  0  0
  -21.8970    2.9015  -14.2193 C   0  0  0  0  0  0  0  0  0  0  0  0
  -20.6734    2.3821  -14.6284 C   0  0  0  0  0  0  0  0  0  0  0  0
  -20.4927    1.0102  -14.8155 C   0  0  0  0  0  0  0  0  0  0  0  0
  -21.6048    0.1623  -14.6582 C   0  0  0  0  0  0  0  0  0  0  0  0
  -19.2221    0.4530  -15.1302 N   0  0  0  0  0  0  0  0  0  0  0  0
  -18.0037    0.9497  -14.7134 C   0  0  0  0  0  0  0  0  0  0  0  0
  -17.8083    1.9418  -14.0163 O   0  0  0  0  0  0  0  0  0  0  0  0
  -16.9266    0.2469  -15.2015 N   0  0  0  0  0  0  0  0  0  0  0  0
  -19.2168   -0.4012  -15.6643 H   0  0  0  0  0  0  0  0  0  0  0  0
  -17.0536   -0.7393  -15.3847 H   0  0  0  0  0  0  0  0  0  0  0  0
  -15.5810    0.7000  -14.8150 C   0  0  0  0  0  0  0  0  0  0  0  0
  -14.9720    0.0608  -13.5552 C   0  0  0  0  0  0  0  0  0  0  0  0
  -14.2190   -1.0248  -13.8418 F   0  0  0  0  0  0  0  0  0  0  0  0
  -14.1531    0.9528  -12.9403 F   0  0  0  0  0  0  0  0  0  0  0  0
  -15.9098   -0.3016  -12.6542 F   0  0  0  0  0  0  0  0  0  0  0  0
 16 17  1  0  0  0
 16 23  1  0  0  0
 16 24  1  0  0  0
 17 18  1  0  0  0
 17 22  1  0  0  0
 18 19  1  0  0  0
 19 20  1  0  0  0
 20 10  1  0  0  0
 20 21  1  0  0  0
 10 11  1  0  0  0
 10 15  2  0  0  0
 11 12  2  0  0  0
 12 13  1  0  0  0
 13  1  1  0  0  0
 13 14  2  0  0  0
  1  2  1  0  0  0
  1  9  2  0  0  0
  2  3  2  0  0  0
  3  4  1  0  0  0
  4  5  1  0  0  0
  4  8  1  0  0  0
  5 25  1  0  0  0
  5  6  2  0  0  0
 25 26  1  0  0  0
 25 30  2  0  0  0
 26 27  2  0  0  0
 27 28  1  0  0  0
 28 29  2  0  0  0
 29 31  1  0  0  0
 29 30  1  0  0  0
 31 32  1  0  0  0
 31 35  1  0  0  0
 32 33  2  0  0  0
 32 34  1  0  0  0
 34 37  1  0  0  0
 34 36  1  0  0  0
 37 38  1  0  0  0
 38 39  1  0  0  0
 38 40  1  0  0  0
 38 41  1  0  0  0
  6  7  1  0  0  0
  7  8  2  0  0  0
  8  9  1  0  0  0
 14 15  1  0  0  0
 21 22  1  0  0  0
M  END
> <minimizedAffinity>
-9.74875

$$$$
