CHEMBL1241579


 27 29  0  0  0  0  0  0  0  0999 V2000
  -28.5937   -9.6255   -8.8949 N   0  0  0  0  0  0  0  0  0  0  0  0
  -28.1753   -8.4391   -8.4054 N   0  0  0  0  0  0  0  0  0  0  0  0
  -29.2331   -7.9609   -7.7234 C   0  0  0  0  0  0  0  0  0  0  0  0
  -30.3409   -8.8684   -7.7810 C   0  0  0  0  0  0  0  0  0  0  0  0
  -31.6540   -8.9815   -7.2958 C   0  0  0  0  0  0  0  0  0  0  0  0
  -32.2995   -8.0645   -6.4841 N   0  0  0  0  0  0  0  0  0  0  0  0
  -32.3745  -10.0749   -7.6250 N   0  0  0  0  0  0  0  0  0  0  0  0
  -31.8085  -11.0184   -8.3957 C   0  0  0  0  0  0  0  0  0  0  0  0
  -30.5658  -11.0303   -8.9015 N   0  0  0  0  0  0  0  0  0  0  0  0
  -29.8848   -9.9244   -8.5566 C   0  0  0  0  0  0  0  0  0  0  0  0
  -31.7196   -7.5478   -5.8364 H   0  0  0  0  0  0  0  0  0  0  0  0
  -33.1531   -8.4527   -6.0992 H   0  0  0  0  0  0  0  0  0  0  0  0
  -29.1168   -6.6711   -7.0356 C   0  0  0  0  0  0  0  0  0  0  0  0
  -29.6175   -5.5037   -7.6405 C   0  0  0  0  0  0  0  0  0  0  0  0
  -29.5110   -4.2604   -7.0049 C   0  0  0  0  0  0  0  0  0  0  0  0
  -28.8891   -4.1756   -5.7618 C   0  0  0  0  0  0  0  0  0  0  0  0
  -28.7461   -2.6466   -4.9805 Cl  0  0  0  0  0  0  0  0  0  0  0  0
  -28.3950   -5.3306   -5.1540 C   0  0  0  0  0  0  0  0  0  0  0  0
  -27.7574   -5.2998   -3.9447 O   0  0  0  0  0  0  0  0  0  0  0  0
  -28.5295   -6.5721   -5.7699 C   0  0  0  0  0  0  0  0  0  0  0  0
  -27.7455   -4.3715   -3.6450 H   0  0  0  0  0  0  0  0  0  0  0  0
  -26.3423  -10.6619   -8.9532 C   0  0  0  0  0  0  0  0  0  0  0  0
  -27.6841  -10.4704   -9.6708 C   0  0  0  0  0  0  0  0  0  0  0  0
  -27.5153   -9.9064  -11.0983 C   0  0  0  0  0  0  0  0  0  0  0  0
  -26.6183   -8.7480  -11.2058 N   0  0  0  0  0  0  0  0  0  0  0  0
  -25.6969   -8.9788  -10.8357 H   0  0  0  0  0  0  0  0  0  0  0  0
  -26.9723   -7.9717  -10.6479 H   0  0  0  0  0  0  0  0  0  0  0  0
 23  1  1  0  0  0
 23 24  1  0  0  0
 23 22  1  0  0  0
 24 25  1  0  0  0
 25 26  1  0  0  0
 25 27  1  0  0  0
  1  2  1  0  0  0
  1 10  1  0  0  0
  2  3  2  0  0  0
  3 13  1  0  0  0
  3  4  1  0  0  0
 13 14  1  0  0  0
 13 20  2  0  0  0
 14 15  2  0  0  0
 15 16  1  0  0  0
 16 17  1  0  0  0
 16 18  2  0  0  0
 18 19  1  0  0  0
 18 20  1  0  0  0
 19 21  1  0  0  0
  4  5  1  0  0  0
  4 10  2  0  0  0
  5  6  1  0  0  0
  5  7  2  0  0  0
  6 11  1  0  0  0
  6 12  1  0  0  0
  7  8  1  0  0  0
  8  9  2  0  0  0
  9 10  1  0  0  0
M  END
> <minimizedAffinity>
-7.58512

$$$$
