CHEMBL389299


 31 34  0  0  0  0  0  0  0  0999 V2000
  -15.2880   -0.8649  -13.2195 C   0  0  0  0  0  0  0  0  0  0  0  0
  -15.8072   -1.5320  -12.1098 C   0  0  0  0  0  0  0  0  0  0  0  0
  -15.2984   -2.7622  -11.7143 C   0  0  0  0  0  0  0  0  0  0  0  0
  -14.2950   -3.3888  -12.4599 C   0  0  0  0  0  0  0  0  0  0  0  0
  -13.9146   -2.8016  -13.6748 C   0  0  0  0  0  0  0  0  0  0  0  0
  -14.3948   -1.5341  -14.0496 C   0  0  0  0  0  0  0  0  0  0  0  0
  -13.6624   -4.6065  -11.9360 C   0  0  0  0  0  0  0  0  0  0  0  0
  -12.6098   -4.4850  -11.0435 C   0  0  0  0  0  0  0  0  0  0  0  0
  -11.9142   -5.9672  -10.6111 S   0  0  0  0  0  0  0  0  0  0  0  0
  -13.0188   -6.8442  -11.5919 C   0  0  0  0  0  0  0  0  0  0  0  0
  -13.0404   -8.2362  -11.7238 C   0  0  0  0  0  0  0  0  0  0  0  0
  -13.9977   -8.7483  -12.5619 C   0  0  0  0  0  0  0  0  0  0  0  0
  -14.8643   -7.9957  -13.2605 N   0  0  0  0  0  0  0  0  0  0  0  0
  -14.8348   -6.6486  -13.1569 C   0  0  0  0  0  0  0  0  0  0  0  0
  -15.7398   -6.0054  -13.9928 N   0  0  0  0  0  0  0  0  0  0  0  0
  -13.9083   -6.0077  -12.2798 C   0  0  0  0  0  0  0  0  0  0  0  0
  -16.1187   -6.6923  -14.6366 H   0  0  0  0  0  0  0  0  0  0  0  0
  -15.3492   -5.1828  -14.4338 H   0  0  0  0  0  0  0  0  0  0  0  0
  -15.6812    0.4588  -13.5138 N   0  0  0  0  0  0  0  0  0  0  0  0
  -15.8033    1.1021  -12.7396 H   0  0  0  0  0  0  0  0  0  0  0  0
  -15.7335    0.9990  -14.7866 C   0  0  0  0  0  0  0  0  0  0  0  0
  -14.5210    2.0211  -15.3014 S   0  0  0  0  0  0  0  0  0  0  0  0
  -16.9143    0.7373  -15.4516 N   0  0  0  0  0  0  0  0  0  0  0  0
  -16.8602   -0.0444  -16.0924 H   0  0  0  0  0  0  0  0  0  0  0  0
  -21.7564    0.6688  -14.3319 C   0  0  0  0  0  0  0  0  0  0  0  0
  -20.5347    1.3972  -14.8109 C   0  0  0  0  0  0  0  0  0  0  0  0
  -20.5573    2.7834  -14.9992 C   0  0  0  0  0  0  0  0  0  0  0  0
  -19.3918    3.4644  -15.3441 C   0  0  0  0  0  0  0  0  0  0  0  0
  -18.1955    2.7642  -15.4983 C   0  0  0  0  0  0  0  0  0  0  0  0
  -18.1678    1.3725  -15.3666 C   0  0  0  0  0  0  0  0  0  0  0  0
  -19.3368    0.6929  -15.0168 C   0  0  0  0  0  0  0  0  0  0  0  0
 25 26  1  0  0  0
 26 27  1  0  0  0
 26 31  2  0  0  0
 27 28  2  0  0  0
 28 29  1  0  0  0
 29 30  2  0  0  0
 30 23  1  0  0  0
 30 31  1  0  0  0
 23 21  1  0  0  0
 23 24  1  0  0  0
 21 22  2  0  0  0
 21 19  1  0  0  0
 19  1  1  0  0  0
 19 20  1  0  0  0
  1  2  1  0  0  0
  1  6  2  0  0  0
  2  3  2  0  0  0
  3  4  1  0  0  0
  4  7  1  0  0  0
  4  5  2  0  0  0
  7  8  2  0  0  0
  7 16  1  0  0  0
  8  9  1  0  0  0
  9 10  1  0  0  0
 10 11  1  0  0  0
 10 16  2  0  0  0
 11 12  2  0  0  0
 12 13  1  0  0  0
 13 14  2  0  0  0
 14 15  1  0  0  0
 14 16  1  0  0  0
 15 17  1  0  0  0
 15 18  1  0  0  0
  5  6  1  0  0  0
M  END
> <minimizedAffinity>
-8.86317

$$$$
