CHEMBL3932860


 48 52  0  0  0  0  0  0  0  0999 V2000
  -15.9747    1.9233  -15.9359 N   0  0  0  0  0  0  0  0  0  0  0  0
  -17.1441    1.7348  -15.1930 C   0  0  0  0  0  0  0  0  0  0  0  0
  -17.1784    1.2967  -14.0482 O   0  0  0  0  0  0  0  0  0  0  0  0
  -18.2898    2.0762  -15.9019 N   0  0  0  0  0  0  0  0  0  0  0  0
  -16.0274    2.6036  -16.6762 H   0  0  0  0  0  0  0  0  0  0  0  0
  -18.2436    1.8671  -16.8897 H   0  0  0  0  0  0  0  0  0  0  0  0
  -19.5639    1.9353  -15.2846 C   0  0  0  0  0  0  0  0  0  0  0  0
  -20.1224    0.6611  -15.1555 C   0  0  0  0  0  0  0  0  0  0  0  0
  -21.3476    0.4880  -14.4924 C   0  0  0  0  0  0  0  0  0  0  0  0
  -22.0190    1.5842  -13.9333 C   0  0  0  0  0  0  0  0  0  0  0  0
  -21.4854    2.8582  -14.1295 C   0  0  0  0  0  0  0  0  0  0  0  0
  -22.1406    3.9385  -13.6755 F   0  0  0  0  0  0  0  0  0  0  0  0
  -20.2661    3.0396  -14.7897 C   0  0  0  0  0  0  0  0  0  0  0  0
  -23.2128    1.4863  -13.2434 O   0  0  0  0  0  0  0  0  0  0  0  0
  -23.9201    0.2971  -13.2553 C   0  0  0  0  0  0  0  0  0  0  0  0
  -24.1768   -0.4320  -14.4125 C   0  0  0  0  0  0  0  0  0  0  0  0
  -24.9550   -1.5579  -14.3057 C   0  0  0  0  0  0  0  0  0  0  0  0
  -25.4203   -2.0210  -13.1338 N   0  0  0  0  0  0  0  0  0  0  0  0
  -25.1082   -1.3770  -12.0013 C   0  0  0  0  0  0  0  0  0  0  0  0
  -24.3512   -0.2035  -12.0177 C   0  0  0  0  0  0  0  0  0  0  0  0
  -25.5542   -1.8988  -10.7730 N   0  0  0  0  0  0  0  0  0  0  0  0
  -26.8656   -1.7557  -10.3300 C   0  0  0  0  0  0  0  0  0  0  0  0
  -27.7805   -1.1836  -10.8947 O   0  0  0  0  0  0  0  0  0  0  0  0
  -24.8961   -2.4001  -10.2038 H   0  0  0  0  0  0  0  0  0  0  0  0
  -27.1464   -2.3891   -8.9994 C   0  0  0  0  0  0  0  0  0  0  0  0
  -28.5749   -2.7693   -8.6536 C   0  0  0  0  0  0  0  0  0  0  0  0
  -27.9347   -1.6000   -7.9667 C   0  0  0  0  0  0  0  0  0  0  0  0
  -13.0722   -0.1081  -14.7297 C   0  0  0  0  0  0  0  0  0  0  0  0
  -14.2927    0.2274  -15.3158 C   0  0  0  0  0  0  0  0  0  0  0  0
  -14.6836    1.5642  -15.4633 C   0  0  0  0  0  0  0  0  0  0  0  0
  -13.7713    2.5722  -15.1110 C   0  0  0  0  0  0  0  0  0  0  0  0
  -12.5308    2.2455  -14.5189 C   0  0  0  0  0  0  0  0  0  0  0  0
  -12.1985    0.8957  -14.3221 C   0  0  0  0  0  0  0  0  0  0  0  0
  -13.2321   -2.1663  -13.4438 C   0  0  0  0  0  0  0  0  0  0  0  0
  -13.8036   -1.6248  -12.4990 O   0  0  0  0  0  0  0  0  0  0  0  0
  -12.7708   -1.4740  -14.5535 N   0  0  0  0  0  0  0  0  0  0  0  0
  -12.6504   -2.0108  -15.4014 H   0  0  0  0  0  0  0  0  0  0  0  0
  -16.6784   -4.8889  -11.7461 C   0  0  0  0  0  0  0  0  0  0  0  0
  -15.3283   -4.9934  -12.3120 N   0  0  0  0  0  0  0  0  0  0  0  0
  -15.3351   -4.4876  -13.6893 C   0  0  0  0  0  0  0  0  0  0  0  0
  -13.9346   -4.5020  -14.3022 C   0  0  0  0  0  0  0  0  0  0  0  0
  -12.9499   -3.6793  -13.4650 C   0  0  0  0  0  0  0  0  0  0  0  0
  -12.9610   -4.2458  -12.0378 C   0  0  0  0  0  0  0  0  0  0  0  0
  -14.3781   -4.2721  -11.4506 C   0  0  0  0  0  0  0  0  0  0  0  0
  -11.5553    3.3018  -14.0576 C   0  0  0  0  0  0  0  0  0  0  0  0
  -10.7719    2.9009  -13.0180 F   0  0  0  0  0  0  0  0  0  0  0  0
  -10.6966    3.6923  -15.0403 F   0  0  0  0  0  0  0  0  0  0  0  0
  -12.1783    4.4383  -13.6346 F   0  0  0  0  0  0  0  0  0  0  0  0
 38 39  1  0  0  0
 39 40  1  0  0  0
 39 44  1  0  0  0
 40 41  1  0  0  0
 41 42  1  0  0  0
 42 34  1  0  0  0
 42 43  1  0  0  0
 34 35  2  0  0  0
 34 36  1  0  0  0
 36 28  1  0  0  0
 36 37  1  0  0  0
 28 29  1  0  0  0
 28 33  2  0  0  0
 29 30  2  0  0  0
 30  1  1  0  0  0
 30 31  1  0  0  0
  1  2  1  0  0  0
  1  5  1  0  0  0
  2  3  2  0  0  0
  2  4  1  0  0  0
  4  7  1  0  0  0
  4  6  1  0  0  0
  7  8  1  0  0  0
  7 13  2  0  0  0
  8  9  2  0  0  0
  9 10  1  0  0  0
 10 14  1  0  0  0
 10 11  2  0  0  0
 14 15  1  0  0  0
 15 16  1  0  0  0
 15 20  2  0  0  0
 16 17  2  0  0  0
 17 18  1  0  0  0
 18 19  2  0  0  0
 19 21  1  0  0  0
 19 20  1  0  0  0
 21 22  1  0  0  0
 21 24  1  0  0  0
 22 23  2  0  0  0
 22 25  1  0  0  0
 25 26  1  0  0  0
 25 27  1  0  0  0
 26 27  1  0  0  0
 11 12  1  0  0  0
 11 13  1  0  0  0
 31 32  2  0  0  0
 32 45  1  0  0  0
 32 33  1  0  0  0
 45 46  1  0  0  0
 45 47  1  0  0  0
 45 48  1  0  0  0
 43 44  1  0  0  0
M  END
> <minimizedAffinity>
-10.25837

$$$$
