CHEMBL258185


 38 42  0  0  0  0  0  0  0  0999 V2000
  -28.7841   -6.8262   -5.7751 C   0  0  0  0  0  0  0  0  0  0  0  0
  -28.6469   -6.9994   -7.1522 C   0  0  0  0  0  0  0  0  0  0  0  0
  -28.7152   -5.8947   -7.9989 C   0  0  0  0  0  0  0  0  0  0  0  0
  -28.8182   -4.5968   -7.4809 C   0  0  0  0  0  0  0  0  0  0  0  0
  -28.8979   -4.4201   -6.1024 C   0  0  0  0  0  0  0  0  0  0  0  0
  -28.8815   -5.5330   -5.2624 C   0  0  0  0  0  0  0  0  0  0  0  0
  -28.9843   -5.3417   -3.9383 F   0  0  0  0  0  0  0  0  0  0  0  0
  -28.8571   -3.5660   -8.4334 N   0  0  0  0  0  0  0  0  0  0  0  0
  -29.5602   -3.6977   -9.1636 H   0  0  0  0  0  0  0  0  0  0  0  0
  -28.0455   -2.4819   -8.6632 C   0  0  0  0  0  0  0  0  0  0  0  0
  -27.6928   -1.1932   -7.6612 S   0  0  0  0  0  0  0  0  0  0  0  0
  -27.3813   -2.5151   -9.8791 N   0  0  0  0  0  0  0  0  0  0  0  0
  -27.5405   -1.6759  -10.9745 C   0  0  0  0  0  0  0  0  0  0  0  0
  -28.2954   -0.7035  -10.9820 O   0  0  0  0  0  0  0  0  0  0  0  0
  -26.7281   -3.2832   -9.9581 H   0  0  0  0  0  0  0  0  0  0  0  0
  -26.7035   -2.0618  -12.1771 C   0  0  0  0  0  0  0  0  0  0  0  0
  -25.3281   -1.4560  -12.1125 C   0  0  0  0  0  0  0  0  0  0  0  0
  -25.1616   -0.0679  -12.0241 C   0  0  0  0  0  0  0  0  0  0  0  0
  -23.8831    0.4893  -12.0516 C   0  0  0  0  0  0  0  0  0  0  0  0
  -22.7633   -0.3337  -12.1619 C   0  0  0  0  0  0  0  0  0  0  0  0
  -22.9185   -1.7164  -12.2328 C   0  0  0  0  0  0  0  0  0  0  0  0
  -24.1951   -2.2766  -12.2093 C   0  0  0  0  0  0  0  0  0  0  0  0
  -28.8037   -7.8573   -4.8652 O   0  0  0  0  0  0  0  0  0  0  0  0
  -25.2851  -10.8552   -4.4241 C   0  0  0  0  0  0  0  0  0  0  0  0
  -26.0926  -11.7271   -5.1321 C   0  0  0  0  0  0  0  0  0  0  0  0
  -27.3389  -11.1602   -5.5100 C   0  0  0  0  0  0  0  0  0  0  0  0
  -28.2961  -11.8054   -6.2322 N   0  0  0  0  0  0  0  0  0  0  0  0
  -29.4347  -11.1204   -6.4343 C   0  0  0  0  0  0  0  0  0  0  0  0
  -29.6821   -9.8397   -5.9838 C   0  0  0  0  0  0  0  0  0  0  0  0
  -28.6662   -9.1506   -5.3190 C   0  0  0  0  0  0  0  0  0  0  0  0
  -27.4812   -9.8538   -5.0520 C   0  0  0  0  0  0  0  0  0  0  0  0
  -26.0767   -9.3487   -4.2034 S   0  0  0  0  0  0  0  0  0  0  0  0
  -22.6363  -10.8886   -6.0361 C   0  0  0  0  0  0  0  0  0  0  0  0
  -22.7928  -11.1253   -4.6171 N   0  0  0  0  0  0  0  0  0  0  0  0
  -21.7337  -11.3803   -3.7786 C   0  0  0  0  0  0  0  0  0  0  0  0
  -22.2169  -11.4934   -2.4973 C   0  0  0  0  0  0  0  0  0  0  0  0
  -23.6152  -11.3061   -2.5650 C   0  0  0  0  0  0  0  0  0  0  0  0
  -23.9683  -11.0888   -3.8902 C   0  0  0  0  0  0  0  0  0  0  0  0
 33 34  1  0  0  0
 34 35  1  0  0  0
 34 38  1  0  0  0
 35 36  2  0  0  0
 36 37  1  0  0  0
 37 38  2  0  0  0
 38 24  1  0  0  0
 24 25  2  0  0  0
 24 32  1  0  0  0
 25 26  1  0  0  0
 26 27  1  0  0  0
 26 31  2  0  0  0
 27 28  2  0  0  0
 28 29  1  0  0  0
 29 30  2  0  0  0
 30 23  1  0  0  0
 30 31  1  0  0  0
 23  1  1  0  0  0
  1  2  1  0  0  0
  1  6  2  0  0  0
  2  3  2  0  0  0
  3  4  1  0  0  0
  4  8  1  0  0  0
  4  5  2  0  0  0
  8 10  1  0  0  0
  8  9  1  0  0  0
 10 11  2  0  0  0
 10 12  1  0  0  0
 12 13  1  0  0  0
 12 15  1  0  0  0
 13 14  2  0  0  0
 13 16  1  0  0  0
 16 17  1  0  0  0
 17 18  1  0  0  0
 17 22  2  0  0  0
 18 19  2  0  0  0
 19 20  1  0  0  0
 20 21  2  0  0  0
 21 22  1  0  0  0
  5  6  1  0  0  0
  6  7  1  0  0  0
 31 32  1  0  0  0
M  END
> <minimizedAffinity>
-9.70995

$$$$
