CHEMBL4530048


 34 37  0  0  0  0  0  0  0  0999 V2000
  -25.8531   -1.5659  -10.4967 N   0  0  0  0  0  0  0  0  0  0  0  0
  -27.2363   -1.5611  -10.3884 C   0  0  0  0  0  0  0  0  0  0  0  0
  -28.0393   -1.2493  -11.2571 O   0  0  0  0  0  0  0  0  0  0  0  0
  -25.2870   -1.9306   -9.7420 H   0  0  0  0  0  0  0  0  0  0  0  0
  -27.7608   -2.0204   -9.0752 C   0  0  0  0  0  0  0  0  0  0  0  0
  -27.6071   -1.1897   -7.9576 C   0  0  0  0  0  0  0  0  0  0  0  0
  -28.1465   -1.5687   -6.7283 C   0  0  0  0  0  0  0  0  0  0  0  0
  -28.8482   -2.7706   -6.6202 C   0  0  0  0  0  0  0  0  0  0  0  0
  -28.9653   -3.6110   -7.7268 C   0  0  0  0  0  0  0  0  0  0  0  0
  -28.4052   -3.2547   -8.9464 C   0  0  0  0  0  0  0  0  0  0  0  0
  -29.6909   -4.8229   -7.6269 N   0  0  0  0  0  0  0  0  0  0  0  0
  -30.6294   -4.8007   -7.2317 H   0  0  0  0  0  0  0  0  0  0  0  0
  -28.8683   -6.2625   -7.3205 S   0  0  0  0  0  0  0  0  0  0  0  0
  -27.9702   -6.4520   -8.4415 O   0  0  0  0  0  0  0  0  0  0  0  0
  -28.3820   -6.2495   -5.9591 O   0  0  0  0  0  0  0  0  0  0  0  0
  -30.1222   -7.5321   -7.4457 C   0  0  0  0  0  0  0  0  0  0  0  0
  -31.3798   -7.3141   -6.8682 C   0  0  0  0  0  0  0  0  0  0  0  0
  -32.4167   -8.2224   -7.0990 C   0  0  0  0  0  0  0  0  0  0  0  0
  -32.2004   -9.3394   -7.9066 C   0  0  0  0  0  0  0  0  0  0  0  0
  -30.9447   -9.5596   -8.4756 C   0  0  0  0  0  0  0  0  0  0  0  0
  -29.9018   -8.6553   -8.2502 C   0  0  0  0  0  0  0  0  0  0  0  0
  -23.7954   -0.2005  -13.0608 N   0  0  0  0  0  0  0  0  0  0  0  0
  -24.1362   -0.2948  -11.7330 C   0  0  0  0  0  0  0  0  0  0  0  0
  -25.1572   -1.1995  -11.6310 C   0  0  0  0  0  0  0  0  0  0  0  0
  -25.3422   -1.6592  -12.9473 C   0  0  0  0  0  0  0  0  0  0  0  0
  -24.5277   -1.0618  -13.8201 N   0  0  0  0  0  0  0  0  0  0  0  0
  -20.9761    2.4057  -14.8340 C   0  0  0  0  0  0  0  0  0  0  0  0
  -22.1039    2.9216  -14.1989 C   0  0  0  0  0  0  0  0  0  0  0  0
  -23.0339    2.0635  -13.6064 C   0  0  0  0  0  0  0  0  0  0  0  0
  -22.8374    0.6762  -13.6354 C   0  0  0  0  0  0  0  0  0  0  0  0
  -21.6953    0.1570  -14.2548 C   0  0  0  0  0  0  0  0  0  0  0  0
  -20.7742    1.0231  -14.8523 C   0  0  0  0  0  0  0  0  0  0  0  0
  -18.6872    2.6325  -15.4178 C   0  0  0  0  0  0  0  0  0  0  0  0
  -20.0148    3.1424  -15.4691 O   0  0  0  0  0  0  0  0  0  0  0  0
 33 34  1  0  0  0
 34 27  1  0  0  0
 27 28  1  0  0  0
 27 32  2  0  0  0
 28 29  2  0  0  0
 29 30  1  0  0  0
 30 22  1  0  0  0
 30 31  2  0  0  0
 22 23  1  0  0  0
 22 26  1  0  0  0
 23 24  2  0  0  0
 24  1  1  0  0  0
 24 25  1  0  0  0
  1  2  1  0  0  0
  1  4  1  0  0  0
  2  3  2  0  0  0
  2  5  1  0  0  0
  5  6  1  0  0  0
  5 10  2  0  0  0
  6  7  2  0  0  0
  7  8  1  0  0  0
  8  9  2  0  0  0
  9 11  1  0  0  0
  9 10  1  0  0  0
 11 13  1  0  0  0
 11 12  1  0  0  0
 13 14  2  0  0  0
 13 15  2  0  0  0
 13 16  1  0  0  0
 16 17  1  0  0  0
 16 21  2  0  0  0
 17 18  2  0  0  0
 18 19  1  0  0  0
 19 20  2  0  0  0
 20 21  1  0  0  0
 25 26  2  0  0  0
 31 32  1  0  0  0
M  END
> <minimizedAffinity>
-10.46896

$$$$
