CHEMBL3681278


 38 43  0  0  0  0  0  0  0  0999 V2000
  -14.6936   -1.8204  -12.8536 N   0  0  0  0  0  0  0  0  0  0  0  0
  -15.5553   -1.2818  -11.9462 N   0  0  0  0  0  0  0  0  0  0  0  0
  -15.9828   -0.1633  -12.5190 C   0  0  0  0  0  0  0  0  0  0  0  0
  -15.5327   -0.0234  -13.8427 C   0  0  0  0  0  0  0  0  0  0  0  0
  -14.6200   -1.0471  -14.0209 C   0  0  0  0  0  0  0  0  0  0  0  0
  -13.8573   -1.3530  -15.1058 N   0  0  0  0  0  0  0  0  0  0  0  0
  -13.6279   -0.6492  -15.8093 H   0  0  0  0  0  0  0  0  0  0  0  0
  -13.2322   -2.1522  -15.1458 H   0  0  0  0  0  0  0  0  0  0  0  0
  -13.6233   -8.9800  -11.9229 C   0  0  0  0  0  0  0  0  0  0  0  0
  -13.6374   -7.5043  -12.0295 C   0  0  0  0  0  0  0  0  0  0  0  0
  -14.6086   -6.7544  -12.5087 N   0  0  0  0  0  0  0  0  0  0  0  0
  -14.1503   -5.4650  -12.4284 C   0  0  0  0  0  0  0  0  0  0  0  0
  -14.7844   -4.2732  -12.7963 C   0  0  0  0  0  0  0  0  0  0  0  0
  -14.0920   -3.0685  -12.5811 C   0  0  0  0  0  0  0  0  0  0  0  0
  -12.7713   -3.0676  -12.0945 C   0  0  0  0  0  0  0  0  0  0  0  0
  -12.1415   -4.2481  -11.7141 C   0  0  0  0  0  0  0  0  0  0  0  0
  -12.8710   -5.4238  -11.8877 C   0  0  0  0  0  0  0  0  0  0  0  0
  -12.5758   -6.7347  -11.6247 N   0  0  0  0  0  0  0  0  0  0  0  0
  -11.7166   -7.0776  -11.2207 H   0  0  0  0  0  0  0  0  0  0  0  0
  -15.9608    1.0323  -14.7279 C   0  0  0  0  0  0  0  0  0  0  0  0
  -15.1319    1.7626  -15.2671 O   0  0  0  0  0  0  0  0  0  0  0  0
  -17.3726    1.1748  -14.9788 C   0  0  0  0  0  0  0  0  0  0  0  0
  -18.0839    2.3192  -14.6883 C   0  0  0  0  0  0  0  0  0  0  0  0
  -19.3873    2.1283  -15.1509 C   0  0  0  0  0  0  0  0  0  0  0  0
  -20.5168    2.9730  -15.1655 C   0  0  0  0  0  0  0  0  0  0  0  0
  -21.3173    2.4298  -14.1782 C   0  0  0  0  0  0  0  0  0  0  0  0
  -21.7231    1.0897  -14.2564 C   0  0  0  0  0  0  0  0  0  0  0  0
  -20.8575    0.1910  -14.9284 C   0  0  0  0  0  0  0  0  0  0  0  0
  -19.5758    0.7446  -15.2019 C   0  0  0  0  0  0  0  0  0  0  0  0
  -18.3058    0.2489  -15.4656 N   0  0  0  0  0  0  0  0  0  0  0  0
  -18.0816   -0.6949  -15.7576 H   0  0  0  0  0  0  0  0  0  0  0  0
  -23.1136    0.8392  -13.7159 C   0  0  0  0  0  0  0  0  0  0  0  0
  -23.3838    0.3894  -12.3445 N   0  0  0  0  0  0  0  0  0  0  0  0
  -22.6942   -0.9128  -12.1068 C   0  0  0  0  0  0  0  0  0  0  0  0
  -23.4736   -2.1340  -12.6412 C   0  0  0  0  0  0  0  0  0  0  0  0
  -24.7708   -2.2076  -12.0442 O   0  0  0  0  0  0  0  0  0  0  0  0
  -25.5202   -1.0176  -12.3227 C   0  0  0  0  0  0  0  0  0  0  0  0
  -24.7731    0.2540  -11.8827 C   0  0  0  0  0  0  0  0  0  0  0  0
  9 10  1  0  0  0
 10 11  2  0  0  0
 10 18  1  0  0  0
 11 12  1  0  0  0
 12 13  1  0  0  0
 12 17  2  0  0  0
 13 14  2  0  0  0
 14  1  1  0  0  0
 14 15  1  0  0  0
  1  2  1  0  0  0
  1  5  1  0  0  0
  2  3  2  0  0  0
  3  4  1  0  0  0
  4 20  1  0  0  0
  4  5  2  0  0  0
 20 21  2  0  0  0
 20 22  1  0  0  0
 22 23  2  0  0  0
 22 30  1  0  0  0
 23 24  1  0  0  0
 24 25  1  0  0  0
 24 29  2  0  0  0
 25 26  2  0  0  0
 26 27  1  0  0  0
 27 32  1  0  0  0
 27 28  2  0  0  0
 32 33  1  0  0  0
 33 34  1  0  0  0
 33 38  1  0  0  0
 34 35  1  0  0  0
 35 36  1  0  0  0
 36 37  1  0  0  0
 37 38  1  0  0  0
 28 29  1  0  0  0
 29 30  1  0  0  0
 30 31  1  0  0  0
  5  6  1  0  0  0
  6  7  1  0  0  0
  6  8  1  0  0  0
 15 16  2  0  0  0
 16 17  1  0  0  0
 17 18  1  0  0  0
 18 19  1  0  0  0
M  END
> <minimizedAffinity>
-10.42179

$$$$
