CHEMBL3895343


 39 42  0  0  0  0  0  0  0  0999 V2000
  -25.3345   -1.8446  -11.9471 C   0  0  0  0  0  0  0  0  0  0  0  0
  -24.0628   -1.6712  -11.3934 C   0  0  0  0  0  0  0  0  0  0  0  0
  -22.9936   -1.2385  -12.1856 C   0  0  0  0  0  0  0  0  0  0  0  0
  -23.1833   -0.9666  -13.5399 C   0  0  0  0  0  0  0  0  0  0  0  0
  -24.4660   -1.0471  -14.0843 C   0  0  0  0  0  0  0  0  0  0  0  0
  -25.5209   -1.4953  -13.2902 C   0  0  0  0  0  0  0  0  0  0  0  0
  -26.7333   -1.6429  -13.8490 F   0  0  0  0  0  0  0  0  0  0  0  0
  -26.2634   -1.1485   -9.3054 O   0  0  0  0  0  0  0  0  0  0  0  0
  -26.8222   -2.0208   -9.9585 C   0  0  0  0  0  0  0  0  0  0  0  0
  -27.8550   -2.8078   -9.4746 N   0  0  0  0  0  0  0  0  0  0  0  0
  -26.4441   -2.3778  -11.2417 N   0  0  0  0  0  0  0  0  0  0  0  0
  -28.1288   -3.6029  -10.0319 H   0  0  0  0  0  0  0  0  0  0  0  0
  -26.8715   -3.1930  -11.6610 H   0  0  0  0  0  0  0  0  0  0  0  0
  -28.4018   -2.7253   -8.1697 C   0  0  0  0  0  0  0  0  0  0  0  0
  -29.4186   -3.5672   -7.7057 C   0  0  0  0  0  0  0  0  0  0  0  0
  -29.9335   -3.4252   -6.4155 C   0  0  0  0  0  0  0  0  0  0  0  0
  -29.4374   -2.4344   -5.5794 C   0  0  0  0  0  0  0  0  0  0  0  0
  -29.8980   -2.3709   -4.3231 F   0  0  0  0  0  0  0  0  0  0  0  0
  -28.4525   -1.5569   -6.0277 C   0  0  0  0  0  0  0  0  0  0  0  0
  -27.9054   -1.7384   -7.3078 C   0  0  0  0  0  0  0  0  0  0  0  0
  -27.9018   -0.5455   -5.2985 O   0  0  0  0  0  0  0  0  0  0  0  0
  -28.5204    0.7379   -5.3464 C   0  0  0  0  0  0  0  0  0  0  0  0
  -28.3113    1.4227   -6.4878 F   0  0  0  0  0  0  0  0  0  0  0  0
  -29.8461    0.6037   -5.1339 F   0  0  0  0  0  0  0  0  0  0  0  0
  -28.0106    1.4805   -4.3349 F   0  0  0  0  0  0  0  0  0  0  0  0
  -22.0706   -0.5771  -14.2530 O   0  0  0  0  0  0  0  0  0  0  0  0
  -21.7620    0.7651  -14.3328 C   0  0  0  0  0  0  0  0  0  0  0  0
  -22.5689    1.7785  -13.8276 C   0  0  0  0  0  0  0  0  0  0  0  0
  -22.1104    3.0729  -13.9356 C   0  0  0  0  0  0  0  0  0  0  0  0
  -20.9580    3.4036  -14.5450 N   0  0  0  0  0  0  0  0  0  0  0  0
  -20.2143    2.4312  -15.0968 C   0  0  0  0  0  0  0  0  0  0  0  0
  -20.5866    1.0940  -15.0131 C   0  0  0  0  0  0  0  0  0  0  0  0
  -19.0378    2.7598  -15.7865 N   0  0  0  0  0  0  0  0  0  0  0  0
  -17.7715    2.4149  -15.3624 C   0  0  0  0  0  0  0  0  0  0  0  0
  -17.4584    1.7549  -14.3830 O   0  0  0  0  0  0  0  0  0  0  0  0
  -19.1296    3.3019  -16.6309 H   0  0  0  0  0  0  0  0  0  0  0  0
  -16.6875    2.9653  -16.2375 C   0  0  0  0  0  0  0  0  0  0  0  0
  -15.3740    3.4146  -15.6331 C   0  0  0  0  0  0  0  0  0  0  0  0
  -16.3480    4.4362  -16.1417 C   0  0  0  0  0  0  0  0  0  0  0  0
  8  9  2  0  0  0
  9 10  1  0  0  0
  9 11  1  0  0  0
 10 14  1  0  0  0
 10 12  1  0  0  0
 14 15  1  0  0  0
 14 20  2  0  0  0
 15 16  2  0  0  0
 16 17  1  0  0  0
 17 18  1  0  0  0
 17 19  2  0  0  0
 19 21  1  0  0  0
 19 20  1  0  0  0
 21 22  1  0  0  0
 22 23  1  0  0  0
 22 24  1  0  0  0
 22 25  1  0  0  0
 11  1  1  0  0  0
 11 13  1  0  0  0
  1  2  1  0  0  0
  1  6  2  0  0  0
  2  3  2  0  0  0
  3  4  1  0  0  0
  4 26  1  0  0  0
  4  5  2  0  0  0
 26 27  1  0  0  0
 27 28  1  0  0  0
 27 32  2  0  0  0
 28 29  2  0  0  0
 29 30  1  0  0  0
 30 31  2  0  0  0
 31 33  1  0  0  0
 31 32  1  0  0  0
 33 34  1  0  0  0
 33 36  1  0  0  0
 34 35  2  0  0  0
 34 37  1  0  0  0
 37 38  1  0  0  0
 37 39  1  0  0  0
 38 39  1  0  0  0
  5  6  1  0  0  0
  6  7  1  0  0  0
M  END
> <minimizedAffinity>
-12.55791

$$$$
