CHEMBL230223


 39 43  0  0  0  0  0  0  0  0999 V2000
  -29.8896   -4.9317   -6.6030 C   0  0  0  0  0  0  0  0  0  0  0  0
  -30.0240   -3.8229   -5.7537 C   0  0  0  0  0  0  0  0  0  0  0  0
  -29.3492   -2.6330   -6.0270 C   0  0  0  0  0  0  0  0  0  0  0  0
  -29.4465   -1.5893   -5.1960 F   0  0  0  0  0  0  0  0  0  0  0  0
  -28.5960   -2.5850   -7.1846 C   0  0  0  0  0  0  0  0  0  0  0  0
  -27.8982   -1.5322   -7.7037 O   0  0  0  0  0  0  0  0  0  0  0  0
  -27.3269   -2.0445   -8.8360 C   0  0  0  0  0  0  0  0  0  0  0  0
  -27.6118   -3.3103   -9.0702 N   0  0  0  0  0  0  0  0  0  0  0  0
  -28.4428   -3.6564   -8.0445 C   0  0  0  0  0  0  0  0  0  0  0  0
  -29.1099   -4.8591   -7.7658 C   0  0  0  0  0  0  0  0  0  0  0  0
  -26.5858   -1.1848   -9.5515 N   0  0  0  0  0  0  0  0  0  0  0  0
  -26.0662   -0.4718   -9.0572 H   0  0  0  0  0  0  0  0  0  0  0  0
  -26.3062   -1.3092  -10.9220 C   0  0  0  0  0  0  0  0  0  0  0  0
  -27.2893   -1.6645  -11.8532 C   0  0  0  0  0  0  0  0  0  0  0  0
  -27.0023   -1.7133  -13.2165 C   0  0  0  0  0  0  0  0  0  0  0  0
  -25.7254   -1.3855  -13.6697 C   0  0  0  0  0  0  0  0  0  0  0  0
  -25.4364   -1.4230  -15.3736 Cl  0  0  0  0  0  0  0  0  0  0  0  0
  -24.7185   -1.0270  -12.7612 C   0  0  0  0  0  0  0  0  0  0  0  0
  -25.0231   -0.9925  -11.3917 C   0  0  0  0  0  0  0  0  0  0  0  0
  -23.4887   -0.7200  -13.2884 O   0  0  0  0  0  0  0  0  0  0  0  0
  -23.0435    0.6298  -13.1463 C   0  0  0  0  0  0  0  0  0  0  0  0
  -22.1529    1.0082  -14.3362 C   0  0  0  0  0  0  0  0  0  0  0  0
  -21.1928   -0.1199  -14.7304 C   0  0  0  0  0  0  0  0  0  0  0  0
  -19.9231    0.5818  -15.2029 C   0  0  0  0  0  0  0  0  0  0  0  0
  -20.2299    2.0671  -15.1081 C   0  0  0  0  0  0  0  0  0  0  0  0
  -21.2382    2.1289  -14.0487 N   0  0  0  0  0  0  0  0  0  0  0  0
  -21.9056    3.4238  -14.0118 C   0  0  0  0  0  0  0  0  0  0  0  0
  -30.5509   -6.1297   -6.4092 O   0  0  0  0  0  0  0  0  0  0  0  0
  -29.2516   -9.3080   -7.7033 C   0  0  0  0  0  0  0  0  0  0  0  0
  -29.9991   -8.1415   -7.6745 C   0  0  0  0  0  0  0  0  0  0  0  0
  -29.8741   -7.3170   -6.5618 C   0  0  0  0  0  0  0  0  0  0  0  0
  -29.0766   -7.7204   -5.4949 C   0  0  0  0  0  0  0  0  0  0  0  0
  -28.3869   -8.9177   -5.6037 C   0  0  0  0  0  0  0  0  0  0  0  0
  -28.4426   -9.7226   -6.6874 N   0  0  0  0  0  0  0  0  0  0  0  0
  -28.9713  -10.2315  -11.3569 C   0  0  0  0  0  0  0  0  0  0  0  0
  -28.9552   -9.5368  -10.0996 N   0  0  0  0  0  0  0  0  0  0  0  0
  -29.3057  -10.1678   -8.9271 C   0  0  0  0  0  0  0  0  0  0  0  0
  -29.6469  -11.3441   -8.8621 O   0  0  0  0  0  0  0  0  0  0  0  0
  -28.6975   -8.5554  -10.0391 H   0  0  0  0  0  0  0  0  0  0  0  0
 35 36  1  0  0  0
 36 37  1  0  0  0
 36 39  1  0  0  0
 37 38  2  0  0  0
 37 29  1  0  0  0
 29 30  1  0  0  0
 29 34  2  0  0  0
 30 31  2  0  0  0
 31 28  1  0  0  0
 31 32  1  0  0  0
 28  1  1  0  0  0
  1  2  1  0  0  0
  1 10  2  0  0  0
  2  3  2  0  0  0
  3  4  1  0  0  0
  3  5  1  0  0  0
  5  6  1  0  0  0
  5  9  2  0  0  0
  6  7  1  0  0  0
  7 11  1  0  0  0
  7  8  2  0  0  0
 11 13  1  0  0  0
 11 12  1  0  0  0
 13 14  1  0  0  0
 13 19  2  0  0  0
 14 15  2  0  0  0
 15 16  1  0  0  0
 16 17  1  0  0  0
 16 18  2  0  0  0
 18 20  1  0  0  0
 18 19  1  0  0  0
 20 21  1  0  0  0
 22 23  1  0  0  0
 22 26  1  0  0  0
 22 21  1  0  0  0
 23 24  1  0  0  0
 24 25  1  0  0  0
 25 26  1  0  0  0
 26 27  1  0  0  0
  8  9  1  0  0  0
  9 10  1  0  0  0
 32 33  2  0  0  0
 33 34  1  0  0  0
M  END
> <minimizedAffinity>
-9.81141

$$$$
