CHEMBL3740247


 36 40  0  0  0  0  0  0  0  0999 V2000
  -28.8613   -4.7639   -5.5876 C   0  0  0  0  0  0  0  0  0  0  0  0
  -28.1118   -4.4085   -4.4632 C   0  0  0  0  0  0  0  0  0  0  0  0
  -27.7932   -3.1038   -3.8104 C   0  0  0  0  0  0  0  0  0  0  0  0
  -27.6274   -5.5658   -3.8976 N   0  0  0  0  0  0  0  0  0  0  0  0
  -28.0367   -6.6789   -4.5907 C   0  0  0  0  0  0  0  0  0  0  0  0
  -28.8327   -6.2209   -5.6487 C   0  0  0  0  0  0  0  0  0  0  0  0
  -27.0545   -5.5968   -3.0642 H   0  0  0  0  0  0  0  0  0  0  0  0
  -27.6085   -8.0359   -4.1994 C   0  0  0  0  0  0  0  0  0  0  0  0
  -28.5536   -8.9900   -3.7979 C   0  0  0  0  0  0  0  0  0  0  0  0
  -28.2139  -10.3401   -3.6975 C   0  0  0  0  0  0  0  0  0  0  0  0
  -26.9005  -10.7430   -3.9132 C   0  0  0  0  0  0  0  0  0  0  0  0
  -25.9242   -9.7916   -4.2024 C   0  0  0  0  0  0  0  0  0  0  0  0
  -26.2750   -8.4448   -4.3501 C   0  0  0  0  0  0  0  0  0  0  0  0
  -29.4476   -7.1062   -6.6502 C   0  0  0  0  0  0  0  0  0  0  0  0
  -28.7175   -7.5324   -7.7658 C   0  0  0  0  0  0  0  0  0  0  0  0
  -29.2521   -8.4387   -8.6829 C   0  0  0  0  0  0  0  0  0  0  0  0
  -30.5803   -8.8300   -8.5739 C   0  0  0  0  0  0  0  0  0  0  0  0
  -31.3543   -8.3500   -7.5214 C   0  0  0  0  0  0  0  0  0  0  0  0
  -30.7769   -7.5395   -6.5384 C   0  0  0  0  0  0  0  0  0  0  0  0
  -29.5586   -3.8696   -6.5404 C   0  0  0  0  0  0  0  0  0  0  0  0
  -30.7721   -3.9002   -6.7057 O   0  0  0  0  0  0  0  0  0  0  0  0
  -28.4662   -1.6180   -7.1233 C   0  0  0  0  0  0  0  0  0  0  0  0
  -27.8052   -1.0727   -8.1639 N   0  0  0  0  0  0  0  0  0  0  0  0
  -27.7014   -2.0699   -9.0801 N   0  0  0  0  0  0  0  0  0  0  0  0
  -28.3349   -3.2135   -8.6591 C   0  0  0  0  0  0  0  0  0  0  0  0
  -28.7856   -2.9804   -7.3802 C   0  0  0  0  0  0  0  0  0  0  0  0
  -27.0124   -1.8781  -10.3054 C   0  0  0  0  0  0  0  0  0  0  0  0
  -27.7032   -2.0105  -11.5177 C   0  0  0  0  0  0  0  0  0  0  0  0
  -27.0321   -1.8304  -12.7278 C   0  0  0  0  0  0  0  0  0  0  0  0
  -25.6678   -1.5156  -12.7427 C   0  0  0  0  0  0  0  0  0  0  0  0
  -24.9226   -1.3622  -14.0333 C   0  0  0  0  0  0  0  0  0  0  0  0
  -24.9859   -1.3723  -11.5344 C   0  0  0  0  0  0  0  0  0  0  0  0
  -25.6510   -1.5447  -10.3220 C   0  0  0  0  0  0  0  0  0  0  0  0
  -27.6366   -0.0503   -5.2927 C   0  0  0  0  0  0  0  0  0  0  0  0
  -28.7605   -0.8412   -5.9127 C   0  0  0  0  0  0  0  0  0  0  0  0
  -29.8674   -0.8658   -5.3734 O   0  0  0  0  0  0  0  0  0  0  0  0
 34 35  1  0  0  0
 35 36  2  0  0  0
 35 22  1  0  0  0
 22 23  2  0  0  0
 22 26  1  0  0  0
 23 24  1  0  0  0
 24 27  1  0  0  0
 24 25  1  0  0  0
 27 28  1  0  0  0
 27 33  2  0  0  0
 28 29  2  0  0  0
 29 30  1  0  0  0
 30 31  1  0  0  0
 30 32  2  0  0  0
 32 33  1  0  0  0
 25 26  2  0  0  0
 26 20  1  0  0  0
 20 21  2  0  0  0
 20  1  1  0  0  0
  1  2  2  0  0  0
  1  6  1  0  0  0
  2  3  1  0  0  0
  2  4  1  0  0  0
  4  5  1  0  0  0
  4  7  1  0  0  0
  5  8  1  0  0  0
  5  6  2  0  0  0
  8  9  1  0  0  0
  8 13  2  0  0  0
  9 10  2  0  0  0
 10 11  1  0  0  0
 11 12  2  0  0  0
 12 13  1  0  0  0
  6 14  1  0  0  0
 14 15  1  0  0  0
 14 19  2  0  0  0
 15 16  2  0  0  0
 16 17  1  0  0  0
 17 18  2  0  0  0
 18 19  1  0  0  0
M  END
> <minimizedAffinity>
-10.00730

$$$$
