CHEMBL3909047


 43 46  0  0  0  0  0  0  0  0999 V2000
  -20.8733    1.5130  -14.1915 C   0  0  0  0  0  0  0  0  0  0  0  0
  -19.6642    0.8791  -14.5089 C   0  0  0  0  0  0  0  0  0  0  0  0
  -18.5364    1.6471  -14.7996 C   0  0  0  0  0  0  0  0  0  0  0  0
  -18.6632    3.0291  -14.7120 C   0  0  0  0  0  0  0  0  0  0  0  0
  -19.8191    3.6717  -14.4018 N   0  0  0  0  0  0  0  0  0  0  0  0
  -20.9125    2.9164  -14.1661 C   0  0  0  0  0  0  0  0  0  0  0  0
  -22.1000    3.6300  -14.0292 N   0  0  0  0  0  0  0  0  0  0  0  0
  -21.8799    4.6154  -13.9279 H   0  0  0  0  0  0  0  0  0  0  0  0
  -22.7222    3.2694  -13.3161 H   0  0  0  0  0  0  0  0  0  0  0  0
  -23.0296    0.0835  -13.6543 C   0  0  0  0  0  0  0  0  0  0  0  0
  -22.0352    0.7172  -13.9026 C   0  0  0  0  0  0  0  0  0  0  0  0
  -25.9011   -1.4583  -11.8109 C   0  0  0  0  0  0  0  0  0  0  0  0
  -26.5403   -2.1242  -12.8608 C   0  0  0  0  0  0  0  0  0  0  0  0
  -26.0584   -2.0267  -14.1638 C   0  0  0  0  0  0  0  0  0  0  0  0
  -24.9125   -1.2771  -14.4302 C   0  0  0  0  0  0  0  0  0  0  0  0
  -24.2739   -0.5858  -13.3968 C   0  0  0  0  0  0  0  0  0  0  0  0
  -24.7989   -0.6363  -12.0964 C   0  0  0  0  0  0  0  0  0  0  0  0
  -27.5512   -1.3344   -9.9324 C   0  0  0  0  0  0  0  0  0  0  0  0
  -28.5046   -0.9228  -10.5864 O   0  0  0  0  0  0  0  0  0  0  0  0
  -26.2955   -1.6217  -10.4603 N   0  0  0  0  0  0  0  0  0  0  0  0
  -25.6737   -2.1437   -9.8496 H   0  0  0  0  0  0  0  0  0  0  0  0
  -28.1839   -4.1713   -8.3332 C   0  0  0  0  0  0  0  0  0  0  0  0
  -27.9448   -2.8008   -7.8057 C   0  0  0  0  0  0  0  0  0  0  0  0
  -27.9289   -2.4409   -6.4281 C   0  0  0  0  0  0  0  0  0  0  0  0
  -27.6659   -1.0978   -6.3742 C   0  0  0  0  0  0  0  0  0  0  0  0
  -27.5111   -0.5903   -7.6241 O   0  0  0  0  0  0  0  0  0  0  0  0
  -27.6801   -1.6244   -8.5081 C   0  0  0  0  0  0  0  0  0  0  0  0
  -17.2354    1.0492  -15.2218 C   0  0  0  0  0  0  0  0  0  0  0  0
  -16.6886    1.5661  -16.1825 O   0  0  0  0  0  0  0  0  0  0  0  0
  -16.7220   -0.1218  -14.6037 N   0  0  0  0  0  0  0  0  0  0  0  0
  -15.9770   -0.0159  -13.2452 S   0  0  0  0  0  0  0  0  0  0  0  0
  -14.4140    0.7957  -13.5438 C   0  0  0  0  0  0  0  0  0  0  0  0
  -16.5953    0.5995  -12.0862 O   0  0  0  0  0  0  0  0  0  0  0  0
  -15.4914   -1.6710  -12.7832 C   0  0  0  0  0  0  0  0  0  0  0  0
  -14.5362   -2.2644  -13.7896 C   0  0  0  0  0  0  0  0  0  0  0  0
  -13.6299   -1.5760  -14.2842 O   0  0  0  0  0  0  0  0  0  0  0  0
  -14.7214   -3.5788  -14.1426 N   0  0  0  0  0  0  0  0  0  0  0  0
  -13.7849   -4.2870  -15.0004 C   0  0  0  0  0  0  0  0  0  0  0  0
  -14.3241   -5.7116  -15.1214 C   0  0  0  0  0  0  0  0  0  0  0  0
  -15.3473   -5.8381  -13.9945 C   0  0  0  0  0  0  0  0  0  0  0  0
  -16.3747   -6.7654  -14.3059 O   0  0  0  0  0  0  0  0  0  0  0  0
  -15.8699   -4.4166  -13.8414 C   0  0  0  0  0  0  0  0  0  0  0  0
  -16.6603   -6.6248  -15.2248 H   0  0  0  0  0  0  0  0  0  0  0  0
 22 23  1  0  0  0
 23 24  1  0  0  0
 23 27  2  0  0  0
 24 25  2  0  0  0
 25 26  1  0  0  0
 26 27  1  0  0  0
 27 18  1  0  0  0
 18 19  2  0  0  0
 18 20  1  0  0  0
 20 12  1  0  0  0
 20 21  1  0  0  0
 12 13  1  0  0  0
 12 17  2  0  0  0
 13 14  2  0  0  0
 14 15  1  0  0  0
 15 16  2  0  0  0
 16 10  1  0  0  0
 16 17  1  0  0  0
 10 11  3  0  0  0
 11  1  1  0  0  0
  1  2  1  0  0  0
  1  6  2  0  0  0
  2  3  2  0  0  0
  3 28  1  0  0  0
  3  4  1  0  0  0
 28 29  2  0  0  0
 28 30  1  0  0  0
 30 31  2  0  0  0
 31 32  1  0  0  0
 31 33  2  0  0  0
 31 34  1  0  0  0
 34 35  1  0  0  0
 35 36  2  0  0  0
 35 37  1  0  0  0
 37 38  1  0  0  0
 37 42  1  0  0  0
 38 39  1  0  0  0
 39 40  1  0  0  0
 40 41  1  0  0  0
 40 42  1  0  0  0
 41 43  1  0  0  0
  4  5  2  0  0  0
  5  6  1  0  0  0
  6  7  1  0  0  0
  7  8  1  0  0  0
  7  9  1  0  0  0
M  END
> <minimizedAffinity>
-11.48539

$$$$
