CHEMBL3814828


 46 50  0  0  0  0  0  0  0  0999 V2000
  -28.7159   -2.4794   -7.5011 C   0  0  0  0  0  0  0  0  0  0  0  0
  -28.2531   -3.4829   -8.3578 C   0  0  0  0  0  0  0  0  0  0  0  0
  -27.2688   -3.2001   -9.3178 C   0  0  0  0  0  0  0  0  0  0  0  0
  -26.7853   -1.8964   -9.4725 C   0  0  0  0  0  0  0  0  0  0  0  0
  -27.2259   -0.8971   -8.6024 C   0  0  0  0  0  0  0  0  0  0  0  0
  -28.1863   -1.1903   -7.6301 C   0  0  0  0  0  0  0  0  0  0  0  0
  -28.6150   -0.1894   -6.8447 F   0  0  0  0  0  0  0  0  0  0  0  0
  -25.9034   -1.6365  -10.5433 N   0  0  0  0  0  0  0  0  0  0  0  0
  -26.3348   -1.1570  -11.7703 C   0  0  0  0  0  0  0  0  0  0  0  0
  -27.4728   -0.8082  -12.0574 O   0  0  0  0  0  0  0  0  0  0  0  0
  -25.0273   -2.1549  -10.5658 H   0  0  0  0  0  0  0  0  0  0  0  0
  -25.2863   -1.1752  -12.8495 C   0  0  0  0  0  0  0  0  0  0  0  0
  -25.7305   -1.5687  -14.2627 C   0  0  0  0  0  0  0  0  0  0  0  0
  -24.9299   -2.5365  -13.4518 C   0  0  0  0  0  0  0  0  0  0  0  0
  -24.2600   -0.0788  -12.7773 C   0  0  0  0  0  0  0  0  0  0  0  0
  -24.2026    0.5521  -11.7270 O   0  0  0  0  0  0  0  0  0  0  0  0
  -23.4624    0.0730  -13.8947 N   0  0  0  0  0  0  0  0  0  0  0  0
  -23.5981   -0.6014  -14.6330 H   0  0  0  0  0  0  0  0  0  0  0  0
  -22.4427    1.0305  -14.0862 C   0  0  0  0  0  0  0  0  0  0  0  0
  -22.6437    2.4092  -13.9620 C   0  0  0  0  0  0  0  0  0  0  0  0
  -21.5777    3.3014  -14.1128 C   0  0  0  0  0  0  0  0  0  0  0  0
  -20.3122    2.8168  -14.4011 C   0  0  0  0  0  0  0  0  0  0  0  0
  -19.2870    3.6713  -14.5242 F   0  0  0  0  0  0  0  0  0  0  0  0
  -20.0952    1.4550  -14.5646 C   0  0  0  0  0  0  0  0  0  0  0  0
  -21.1627    0.5615  -14.4100 C   0  0  0  0  0  0  0  0  0  0  0  0
  -29.7518   -2.8106   -6.6435 O   0  0  0  0  0  0  0  0  0  0  0  0
  -29.2890   -6.0596   -3.0844 N   0  0  0  0  0  0  0  0  0  0  0  0
  -29.2950   -4.7749   -3.6226 C   0  0  0  0  0  0  0  0  0  0  0  0
  -28.8883   -3.8231   -2.7633 N   0  0  0  0  0  0  0  0  0  0  0  0
  -28.7292   -2.5920   -3.2600 C   0  0  0  0  0  0  0  0  0  0  0  0
  -28.9485   -2.2248   -4.5238 N   0  0  0  0  0  0  0  0  0  0  0  0
  -29.4211   -3.1896   -5.3459 C   0  0  0  0  0  0  0  0  0  0  0  0
  -29.5720   -4.5134   -4.9604 C   0  0  0  0  0  0  0  0  0  0  0  0
  -29.2077   -6.0112   -2.0751 H   0  0  0  0  0  0  0  0  0  0  0  0
  -30.0645   -6.6257   -3.4281 H   0  0  0  0  0  0  0  0  0  0  0  0
  -29.9926   -5.5804   -5.8968 C   0  0  0  0  0  0  0  0  0  0  0  0
  -30.7858   -6.5400   -5.5235 N   0  0  0  0  0  0  0  0  0  0  0  0
  -30.9746   -7.4691   -6.5679 O   0  0  0  0  0  0  0  0  0  0  0  0
  -29.8387   -8.3449   -6.5797 C   0  0  0  0  0  0  0  0  0  0  0  0
  -29.0844   -8.2892   -7.9052 C   0  0  0  0  0  0  0  0  0  0  0  0
  -28.0054   -9.3637   -8.1086 C   0  0  0  0  0  0  0  0  0  0  0  0
  -28.1459  -10.2311   -9.2837 N   0  0  0  0  0  0  0  0  0  0  0  0
  -26.9591  -10.1776  -10.1543 C   0  0  0  0  0  0  0  0  0  0  0  0
  -27.4683  -10.0249  -11.5813 C   0  0  0  0  0  0  0  0  0  0  0  0
  -28.9223  -10.4339  -11.5012 C   0  0  0  0  0  0  0  0  0  0  0  0
  -29.3275   -9.9801  -10.1103 C   0  0  0  0  0  0  0  0  0  0  0  0
 27 28  1  0  0  0
 27 34  1  0  0  0
 27 35  1  0  0  0
 28 29  1  0  0  0
 28 33  2  0  0  0
 29 30  2  0  0  0
 30 31  1  0  0  0
 31 32  2  0  0  0
 32 26  1  0  0  0
 32 33  1  0  0  0
 26  1  1  0  0  0
  1  2  1  0  0  0
  1  6  2  0  0  0
  2  3  2  0  0  0
  3  4  1  0  0  0
  4  8  1  0  0  0
  4  5  2  0  0  0
  8  9  1  0  0  0
  8 11  1  0  0  0
  9 10  2  0  0  0
  9 12  1  0  0  0
 12 15  1  0  0  0
 12 13  1  0  0  0
 12 14  1  0  0  0
 15 16  2  0  0  0
 15 17  1  0  0  0
 17 19  1  0  0  0
 17 18  1  0  0  0
 19 20  1  0  0  0
 19 25  2  0  0  0
 20 21  2  0  0  0
 21 22  1  0  0  0
 22 23  1  0  0  0
 22 24  2  0  0  0
 24 25  1  0  0  0
 13 14  1  0  0  0
  5  6  1  0  0  0
  6  7  1  0  0  0
 33 36  1  0  0  0
 36 37  2  0  0  0
 37 38  1  0  0  0
 38 39  1  0  0  0
 39 40  1  0  0  0
 40 41  1  0  0  0
 41 42  1  0  0  0
 42 43  1  0  0  0
 42 46  1  0  0  0
 43 44  1  0  0  0
 44 45  1  0  0  0
 45 46  1  0  0  0
M  END
> <minimizedAffinity>
-9.32624

$$$$
