CHEMBL3964675


 41 46  0  0  0  0  0  0  0  0999 V2000
  -27.3542   -1.7447   -9.7178 C   0  0  0  0  0  0  0  0  0  0  0  0
  -28.1602   -1.7512  -10.8464 C   0  0  0  0  0  0  0  0  0  0  0  0
  -27.6264   -1.7417  -12.1108 C   0  0  0  0  0  0  0  0  0  0  0  0
  -26.2860   -1.5064  -12.3167 C   0  0  0  0  0  0  0  0  0  0  0  0
  -25.8917   -1.6952  -13.5765 N   0  0  0  0  0  0  0  0  0  0  0  0
  -24.6879   -1.2238  -13.9009 C   0  0  0  0  0  0  0  0  0  0  0  0
  -23.9325   -0.4807  -13.0166 C   0  0  0  0  0  0  0  0  0  0  0  0
  -24.2565   -0.4527  -11.6683 N   0  0  0  0  0  0  0  0  0  0  0  0
  -25.4603   -1.0478  -11.2648 C   0  0  0  0  0  0  0  0  0  0  0  0
  -26.0167   -1.2876   -9.9256 C   0  0  0  0  0  0  0  0  0  0  0  0
  -23.0891    0.5311  -13.6670 C   0  0  0  0  0  0  0  0  0  0  0  0
  -23.1306    1.9404  -13.7616 C   0  0  0  0  0  0  0  0  0  0  0  0
  -21.9957    2.4721  -14.2554 N   0  0  0  0  0  0  0  0  0  0  0  0
  -21.2189    1.3983  -14.5201 N   0  0  0  0  0  0  0  0  0  0  0  0
  -21.7845    0.2391  -14.0582 C   0  0  0  0  0  0  0  0  0  0  0  0
  -20.1278    1.4878  -15.4807 C   0  0  0  0  0  0  0  0  0  0  0  0
  -19.1197    2.6498  -15.3906 C   0  0  0  0  0  0  0  0  0  0  0  0
  -19.7335    3.9027  -15.0690 O   0  0  0  0  0  0  0  0  0  0  0  0
  -20.3378    3.7595  -14.3149 H   0  0  0  0  0  0  0  0  0  0  0  0
  -17.8984    2.4234  -14.4698 C   0  0  0  0  0  0  0  0  0  0  0  0
  -16.5732    2.4183  -15.1296 N   0  0  0  0  0  0  0  0  0  0  0  0
  -16.2957    1.1446  -15.8241 C   0  0  0  0  0  0  0  0  0  0  0  0
  -14.8978    1.1503  -16.4509 C   0  0  0  0  0  0  0  0  0  0  0  0
  -14.7204    2.3152  -17.4152 C   0  0  0  0  0  0  0  0  0  0  0  0
  -15.1194    3.6244  -16.7459 C   0  0  0  0  0  0  0  0  0  0  0  0
  -16.5052    3.5285  -16.1041 C   0  0  0  0  0  0  0  0  0  0  0  0
  -27.9576   -2.3538   -8.5494 N   0  0  0  0  0  0  0  0  0  0  0  0
  -28.7395   -0.0965   -5.5885 C   0  0  0  0  0  0  0  0  0  0  0  0
  -28.4363   -0.9305   -4.5231 C   0  0  0  0  0  0  0  0  0  0  0  0
  -27.9295   -2.2073   -4.7762 C   0  0  0  0  0  0  0  0  0  0  0  0
  -27.7444   -2.6563   -6.1019 C   0  0  0  0  0  0  0  0  0  0  0  0
  -28.0991   -1.8747   -7.2060 C   0  0  0  0  0  0  0  0  0  0  0  0
  -28.5458   -0.5632   -6.9006 C   0  0  0  0  0  0  0  0  0  0  0  0
  -30.5398    1.4244   -5.9934 C   0  0  0  0  0  0  0  0  0  0  0  0
  -29.2295    1.1818   -5.4861 O   0  0  0  0  0  0  0  0  0  0  0  0
  -27.5794   -3.1179   -3.8123 O   0  0  0  0  0  0  0  0  0  0  0  0
  -28.0353   -4.4544   -3.9928 C   0  0  0  0  0  0  0  0  0  0  0  0
  -27.7868   -3.8518   -8.6578 C   0  0  0  0  0  0  0  0  0  0  0  0
  -28.4407   -4.8083   -7.6700 C   0  0  0  0  0  0  0  0  0  0  0  0
  -28.8337   -6.2347   -7.9973 C   0  0  0  0  0  0  0  0  0  0  0  0
  -29.8798   -5.2624   -7.5369 C   0  0  0  0  0  0  0  0  0  0  0  0
 34 35  1  0  0  0
 35 28  1  0  0  0
 28 29  1  0  0  0
 28 33  2  0  0  0
 29 30  2  0  0  0
 30 36  1  0  0  0
 30 31  1  0  0  0
 36 37  1  0  0  0
 31 32  2  0  0  0
 32 27  1  0  0  0
 32 33  1  0  0  0
 27 38  1  0  0  0
 27  1  1  0  0  0
 38 39  1  0  0  0
 39 40  1  0  0  0
 39 41  1  0  0  0
 40 41  1  0  0  0
  1  2  1  0  0  0
  1 10  2  0  0  0
  2  3  2  0  0  0
  3  4  1  0  0  0
  4  5  1  0  0  0
  4  9  2  0  0  0
  5  6  2  0  0  0
  6  7  1  0  0  0
  7 11  1  0  0  0
  7  8  2  0  0  0
 11 12  1  0  0  0
 11 15  2  0  0  0
 12 13  2  0  0  0
 13 14  1  0  0  0
 14 16  1  0  0  0
 14 15  1  0  0  0
 16 17  1  0  0  0
 17 18  1  0  0  0
 17 20  1  0  0  0
 18 19  1  0  0  0
 20 21  1  0  0  0
 21 22  1  0  0  0
 21 26  1  0  0  0
 22 23  1  0  0  0
 23 24  1  0  0  0
 24 25  1  0  0  0
 25 26  1  0  0  0
  8  9  1  0  0  0
  9 10  1  0  0  0
M  END
> <minimizedAffinity>
-9.45874

$$$$
