CHEMBL500153


 29 32  0  0  0  0  0  0  0  0999 V2000
  -28.9684   -7.7410   -5.2890 C   0  0  0  0  0  0  0  0  0  0  0  0
  -28.9003   -8.3141   -4.0280 C   0  0  0  0  0  0  0  0  0  0  0  0
  -29.4805   -7.4901   -3.0896 N   0  0  0  0  0  0  0  0  0  0  0  0
  -29.9572   -6.4702   -3.7653 C   0  0  0  0  0  0  0  0  0  0  0  0
  -29.6948   -6.5817   -5.1046 N   0  0  0  0  0  0  0  0  0  0  0  0
  -28.3195   -9.6018   -3.6829 C   0  0  0  0  0  0  0  0  0  0  0  0
  -29.1438  -10.7285   -3.5636 C   0  0  0  0  0  0  0  0  0  0  0  0
  -28.5938  -11.9865   -3.2999 C   0  0  0  0  0  0  0  0  0  0  0  0
  -27.2145  -12.1298   -3.1570 C   0  0  0  0  0  0  0  0  0  0  0  0
  -26.3853  -11.0165   -3.2664 C   0  0  0  0  0  0  0  0  0  0  0  0
  -26.9353   -9.7606   -3.5290 C   0  0  0  0  0  0  0  0  0  0  0  0
  -28.7391   -9.3606   -7.0392 C   0  0  0  0  0  0  0  0  0  0  0  0
  -28.5263   -8.1208   -6.5757 C   0  0  0  0  0  0  0  0  0  0  0  0
  -29.3419   -9.8345  -11.7061 N   0  0  0  0  0  0  0  0  0  0  0  0
  -28.5358  -10.0077  -10.5995 C   0  0  0  0  0  0  0  0  0  0  0  0
  -27.3469  -10.5829  -10.7865 N   0  0  0  0  0  0  0  0  0  0  0  0
  -26.5869  -10.7608   -9.6923 C   0  0  0  0  0  0  0  0  0  0  0  0
  -26.9804  -10.3905   -8.4300 C   0  0  0  0  0  0  0  0  0  0  0  0
  -28.2305   -9.8208   -8.3394 C   0  0  0  0  0  0  0  0  0  0  0  0
  -29.0195   -9.6264   -9.4165 N   0  0  0  0  0  0  0  0  0  0  0  0
  -29.0748  -10.4991  -12.4196 H   0  0  0  0  0  0  0  0  0  0  0  0
  -30.3111   -9.8296  -11.4219 H   0  0  0  0  0  0  0  0  0  0  0  0
  -30.0204   -5.5569   -6.0859 C   0  0  0  0  0  0  0  0  0  0  0  0
  -28.8879   -4.5500   -6.3700 C   0  0  0  0  0  0  0  0  0  0  0  0
  -29.2997   -3.1394   -6.2083 N   0  0  0  0  0  0  0  0  0  0  0  0
  -28.1767   -2.2272   -6.5026 C   0  0  0  0  0  0  0  0  0  0  0  0
  -27.4460   -2.0405   -5.1856 C   0  0  0  0  0  0  0  0  0  0  0  0
  -28.5603   -2.0552   -4.1616 C   0  0  0  0  0  0  0  0  0  0  0  0
  -29.7029   -2.8119   -4.8266 C   0  0  0  0  0  0  0  0  0  0  0  0
 14 15  1  0  0  0
 14 21  1  0  0  0
 14 22  1  0  0  0
 15 16  1  0  0  0
 15 20  2  0  0  0
 16 17  2  0  0  0
 17 18  1  0  0  0
 18 19  2  0  0  0
 19 12  1  0  0  0
 19 20  1  0  0  0
 12 13  2  0  0  0
 13  1  1  0  0  0
  1  2  2  0  0  0
  1  5  1  0  0  0
  2  6  1  0  0  0
  2  3  1  0  0  0
  6  7  1  0  0  0
  6 11  2  0  0  0
  7  8  2  0  0  0
  8  9  1  0  0  0
  9 10  2  0  0  0
 10 11  1  0  0  0
  3  4  2  0  0  0
  4  5  1  0  0  0
  5 23  1  0  0  0
 23 24  1  0  0  0
 24 25  1  0  0  0
 25 26  1  0  0  0
 25 29  1  0  0  0
 26 27  1  0  0  0
 27 28  1  0  0  0
 28 29  1  0  0  0
M  END
> <minimizedAffinity>
-7.43954

$$$$
