CHEMBL3681244


 37 42  0  0  0  0  0  0  0  0999 V2000
  -26.3494   -9.7899   -4.7879 N   0  0  0  0  0  0  0  0  0  0  0  0
  -26.8723   -9.8321   -3.5425 N   0  0  0  0  0  0  0  0  0  0  0  0
  -28.1395   -9.4592   -3.6798 C   0  0  0  0  0  0  0  0  0  0  0  0
  -28.4918   -9.2112   -5.0184 C   0  0  0  0  0  0  0  0  0  0  0  0
  -27.3257   -9.4487   -5.7316 C   0  0  0  0  0  0  0  0  0  0  0  0
  -27.1611   -9.4624   -7.0872 N   0  0  0  0  0  0  0  0  0  0  0  0
  -28.0153   -9.5013   -7.6572 H   0  0  0  0  0  0  0  0  0  0  0  0
  -26.4327  -10.0403   -7.5065 H   0  0  0  0  0  0  0  0  0  0  0  0
  -19.6881  -10.2724   -7.7741 C   0  0  0  0  0  0  0  0  0  0  0  0
  -20.9648  -10.3356   -7.0240 C   0  0  0  0  0  0  0  0  0  0  0  0
  -22.0479   -9.6241   -7.2484 N   0  0  0  0  0  0  0  0  0  0  0  0
  -22.9560  -10.0216   -6.2973 C   0  0  0  0  0  0  0  0  0  0  0  0
  -24.2698   -9.5828   -6.0773 C   0  0  0  0  0  0  0  0  0  0  0  0
  -25.0006  -10.1627   -5.0218 C   0  0  0  0  0  0  0  0  0  0  0  0
  -24.4008  -11.1099   -4.1762 C   0  0  0  0  0  0  0  0  0  0  0  0
  -23.0928  -11.5621   -4.3930 C   0  0  0  0  0  0  0  0  0  0  0  0
  -22.4067  -10.9897   -5.4639 C   0  0  0  0  0  0  0  0  0  0  0  0
  -21.1437  -11.1832   -5.9586 N   0  0  0  0  0  0  0  0  0  0  0  0
  -20.4604  -11.8316   -5.5995 H   0  0  0  0  0  0  0  0  0  0  0  0
  -29.7865   -8.9676   -5.6204 C   0  0  0  0  0  0  0  0  0  0  0  0
  -30.5722   -9.8912   -5.8056 O   0  0  0  0  0  0  0  0  0  0  0  0
  -30.1773   -7.5930   -5.8543 C   0  0  0  0  0  0  0  0  0  0  0  0
  -29.6789   -6.8458   -6.9023 C   0  0  0  0  0  0  0  0  0  0  0  0
  -30.2807   -5.5831   -6.8438 C   0  0  0  0  0  0  0  0  0  0  0  0
  -30.1449   -4.4316   -7.6093 C   0  0  0  0  0  0  0  0  0  0  0  0
  -29.3059   -3.6374   -6.8622 C   0  0  0  0  0  0  0  0  0  0  0  0
  -29.7511   -3.2272   -5.5939 C   0  0  0  0  0  0  0  0  0  0  0  0
  -30.5987   -4.1367   -4.8965 C   0  0  0  0  0  0  0  0  0  0  0  0
  -30.6760   -5.4266   -5.5059 C   0  0  0  0  0  0  0  0  0  0  0  0
  -30.9626   -6.7231   -5.0929 N   0  0  0  0  0  0  0  0  0  0  0  0
  -31.4284   -6.9722   -4.2294 H   0  0  0  0  0  0  0  0  0  0  0  0
  -29.2512   -1.8912   -5.1736 C   0  0  0  0  0  0  0  0  0  0  0  0
  -29.9833   -0.7106   -5.3178 C   0  0  0  0  0  0  0  0  0  0  0  0
  -29.3435    0.5468   -5.2831 C   0  0  0  0  0  0  0  0  0  0  0  0
  -27.9604    0.6462   -5.0981 C   0  0  0  0  0  0  0  0  0  0  0  0
  -27.2212   -0.5010   -4.8875 C   0  0  0  0  0  0  0  0  0  0  0  0
  -27.8619   -1.7410   -4.8974 C   0  0  0  0  0  0  0  0  0  0  0  0
  9 10  1  0  0  0
 10 11  2  0  0  0
 10 18  1  0  0  0
 11 12  1  0  0  0
 12 13  1  0  0  0
 12 17  2  0  0  0
 13 14  2  0  0  0
 14  1  1  0  0  0
 14 15  1  0  0  0
  1  2  1  0  0  0
  1  5  1  0  0  0
  2  3  2  0  0  0
  3  4  1  0  0  0
  4 20  1  0  0  0
  4  5  2  0  0  0
 20 21  2  0  0  0
 20 22  1  0  0  0
 22 23  2  0  0  0
 22 30  1  0  0  0
 23 24  1  0  0  0
 24 25  1  0  0  0
 24 29  2  0  0  0
 25 26  2  0  0  0
 26 27  1  0  0  0
 27 32  1  0  0  0
 27 28  2  0  0  0
 32 33  1  0  0  0
 32 37  2  0  0  0
 33 34  2  0  0  0
 34 35  1  0  0  0
 35 36  2  0  0  0
 36 37  1  0  0  0
 28 29  1  0  0  0
 29 30  1  0  0  0
 30 31  1  0  0  0
  5  6  1  0  0  0
  6  7  1  0  0  0
  6  8  1  0  0  0
 15 16  2  0  0  0
 16 17  1  0  0  0
 17 18  1  0  0  0
 18 19  1  0  0  0
M  END
> <minimizedAffinity>
-9.25917

$$$$
