CHEMBL1688352


 36 41  0  0  0  0  0  0  0  0999 V2000
  -29.3278    0.2978   -5.1605 C   0  0  0  0  0  0  0  0  0  0  0  0
  -28.5089    0.8940   -6.0934 C   0  0  0  0  0  0  0  0  0  0  0  0
  -27.9101    0.2534   -7.1358 N   0  0  0  0  0  0  0  0  0  0  0  0
  -28.0926   -1.0736   -7.2840 C   0  0  0  0  0  0  0  0  0  0  0  0
  -28.8467   -1.7860   -6.3080 C   0  0  0  0  0  0  0  0  0  0  0  0
  -29.4879   -1.0647   -5.2675 C   0  0  0  0  0  0  0  0  0  0  0  0
  -28.8687   -3.2260   -6.1882 C   0  0  0  0  0  0  0  0  0  0  0  0
  -28.4004   -3.9604   -5.1908 N   0  0  0  0  0  0  0  0  0  0  0  0
  -28.3025   -5.2318   -5.6854 N   0  0  0  0  0  0  0  0  0  0  0  0
  -28.7690   -5.2148   -6.9177 C   0  0  0  0  0  0  0  0  0  0  0  0
  -29.1658   -3.9719   -7.2980 O   0  0  0  0  0  0  0  0  0  0  0  0
  -28.8479   -6.1941   -7.8294 N   0  0  0  0  0  0  0  0  0  0  0  0
  -28.0558   -6.3425   -8.4196 H   0  0  0  0  0  0  0  0  0  0  0  0
  -29.7693   -7.2602   -7.7815 C   0  0  0  0  0  0  0  0  0  0  0  0
  -31.0530   -7.0244   -7.2653 C   0  0  0  0  0  0  0  0  0  0  0  0
  -31.9969   -8.0595   -7.1873 C   0  0  0  0  0  0  0  0  0  0  0  0
  -31.6511   -9.3417   -7.6003 C   0  0  0  0  0  0  0  0  0  0  0  0
  -30.3761   -9.5884   -8.1151 C   0  0  0  0  0  0  0  0  0  0  0  0
  -29.4475   -8.5581   -8.1870 C   0  0  0  0  0  0  0  0  0  0  0  0
  -29.9612  -10.8221   -8.5451 O   0  0  0  0  0  0  0  0  0  0  0  0
  -31.0634  -11.7084   -8.7365 C   0  0  0  0  0  0  0  0  0  0  0  0
  -32.0436  -11.6236   -7.5775 C   0  0  0  0  0  0  0  0  0  0  0  0
  -32.6092  -10.3117   -7.4744 O   0  0  0  0  0  0  0  0  0  0  0  0
  -27.5325   -1.7382   -8.3974 N   0  0  0  0  0  0  0  0  0  0  0  0
  -27.4170   -2.7414   -8.1603 H   0  0  0  0  0  0  0  0  0  0  0  0
  -28.1417   -1.5572   -9.7442 C   0  0  0  0  0  0  0  0  0  0  0  0
  -27.2324   -1.5260  -10.9933 C   0  0  0  0  0  0  0  0  0  0  0  0
  -27.6578   -1.8128  -12.3169 C   0  0  0  0  0  0  0  0  0  0  0  0
  -26.7308   -1.8204  -13.3884 C   0  0  0  0  0  0  0  0  0  0  0  0
  -25.4154   -1.4299  -13.2017 C   0  0  0  0  0  0  0  0  0  0  0  0
  -24.5033   -1.1698  -14.1738 N   0  0  0  0  0  0  0  0  0  0  0  0
  -23.3010   -0.6595  -13.8057 C   0  0  0  0  0  0  0  0  0  0  0  0
  -22.9256   -0.4102  -12.4836 C   0  0  0  0  0  0  0  0  0  0  0  0
  -23.8202   -0.7763  -11.4996 C   0  0  0  0  0  0  0  0  0  0  0  0
  -25.0293   -1.2791  -11.8474 C   0  0  0  0  0  0  0  0  0  0  0  0
  -25.8968   -1.6469  -10.8281 C   0  0  0  0  0  0  0  0  0  0  0  0
  1  2  1  0  0  0
  1  6  2  0  0  0
  2  3  2  0  0  0
  3  4  1  0  0  0
  4 24  1  0  0  0
  4  5  2  0  0  0
 24 26  1  0  0  0
 24 25  1  0  0  0
 26 27  1  0  0  0
 27 28  1  0  0  0
 27 36  2  0  0  0
 28 29  2  0  0  0
 29 30  1  0  0  0
 30 31  1  0  0  0
 30 35  2  0  0  0
 31 32  2  0  0  0
 32 33  1  0  0  0
 33 34  2  0  0  0
 34 35  1  0  0  0
 35 36  1  0  0  0
  5  7  1  0  0  0
  5  6  1  0  0  0
  7  8  2  0  0  0
  7 11  1  0  0  0
  8  9  1  0  0  0
  9 10  2  0  0  0
 10 12  1  0  0  0
 10 11  1  0  0  0
 12 14  1  0  0  0
 12 13  1  0  0  0
 14 15  1  0  0  0
 14 19  2  0  0  0
 15 16  2  0  0  0
 16 17  1  0  0  0
 17 18  2  0  0  0
 17 23  1  0  0  0
 18 19  1  0  0  0
 18 20  1  0  0  0
 20 21  1  0  0  0
 21 22  1  0  0  0
 22 23  1  0  0  0
M  END
> <minimizedAffinity>
-11.05390

$$$$
