CHEMBL4787904


 50 55  0  0  0  0  0  0  0  0999 V2000
  -23.6662   -1.1614  -13.1348 C   0  0  0  0  0  0  0  0  0  0  0  0
  -23.4496   -1.4192  -11.7734 C   0  0  0  0  0  0  0  0  0  0  0  0
  -24.4649   -1.9463  -10.9752 C   0  0  0  0  0  0  0  0  0  0  0  0
  -25.7456   -2.1511  -11.4934 C   0  0  0  0  0  0  0  0  0  0  0  0
  -25.9550   -1.9029  -12.8596 C   0  0  0  0  0  0  0  0  0  0  0  0
  -24.9265   -1.4073  -13.6673 C   0  0  0  0  0  0  0  0  0  0  0  0
  -25.1751   -1.1739  -14.9654 F   0  0  0  0  0  0  0  0  0  0  0  0
  -26.7731   -2.5428  -10.6115 N   0  0  0  0  0  0  0  0  0  0  0  0
  -26.9395   -3.5514  -10.5768 H   0  0  0  0  0  0  0  0  0  0  0  0
  -27.1004   -1.9440   -9.3745 C   0  0  0  0  0  0  0  0  0  0  0  0
  -26.7717   -0.6412   -9.1846 N   0  0  0  0  0  0  0  0  0  0  0  0
  -27.1946   -0.0065   -8.0772 C   0  0  0  0  0  0  0  0  0  0  0  0
  -28.0172   -0.5890   -7.1408 C   0  0  0  0  0  0  0  0  0  0  0  0
  -28.3607   -1.9282   -7.3196 C   0  0  0  0  0  0  0  0  0  0  0  0
  -29.2004   -2.5619   -6.4092 N   0  0  0  0  0  0  0  0  0  0  0  0
  -29.2990   -3.9244   -6.3912 C   0  0  0  0  0  0  0  0  0  0  0  0
  -28.6942   -4.7784   -7.2353 C   0  0  0  0  0  0  0  0  0  0  0  0
  -27.9810   -4.1311   -8.4063 C   0  0  0  0  0  0  0  0  0  0  0  0
  -27.4617   -4.7905   -9.3065 O   0  0  0  0  0  0  0  0  0  0  0  0
  -27.8302   -2.6373   -8.4053 C   0  0  0  0  0  0  0  0  0  0  0  0
  -29.5962   -2.0344   -5.6340 H   0  0  0  0  0  0  0  0  0  0  0  0
  -28.6912   -6.2398   -6.9368 C   0  0  0  0  0  0  0  0  0  0  0  0
  -28.9378   -7.2171   -7.9136 C   0  0  0  0  0  0  0  0  0  0  0  0
  -28.8612   -8.5845   -7.6078 C   0  0  0  0  0  0  0  0  0  0  0  0
  -28.5495   -8.9931   -6.3183 C   0  0  0  0  0  0  0  0  0  0  0  0
  -28.4756  -10.2983   -6.0295 F   0  0  0  0  0  0  0  0  0  0  0  0
  -28.3012   -8.0609   -5.3266 C   0  0  0  0  0  0  0  0  0  0  0  0
  -28.3577   -6.7001   -5.6390 C   0  0  0  0  0  0  0  0  0  0  0  0
  -22.6714   -0.6541  -13.9580 O   0  0  0  0  0  0  0  0  0  0  0  0
  -18.7487    1.2317  -14.7044 C   0  0  0  0  0  0  0  0  0  0  0  0
  -19.9581    0.5373  -14.4818 C   0  0  0  0  0  0  0  0  0  0  0  0
  -21.1671    1.2321  -14.1559 C   0  0  0  0  0  0  0  0  0  0  0  0
  -22.4297    0.7108  -13.8254 C   0  0  0  0  0  0  0  0  0  0  0  0
  -23.4836    1.4647  -13.4281 N   0  0  0  0  0  0  0  0  0  0  0  0
  -23.3244    2.7790  -13.4926 C   0  0  0  0  0  0  0  0  0  0  0  0
  -22.2060    3.3967  -13.8627 N   0  0  0  0  0  0  0  0  0  0  0  0
  -21.1526    2.6268  -14.1507 C   0  0  0  0  0  0  0  0  0  0  0  0
  -19.9855    3.2899  -14.4646 C   0  0  0  0  0  0  0  0  0  0  0  0
  -18.7728    2.6328  -14.7115 C   0  0  0  0  0  0  0  0  0  0  0  0
  -17.6278    3.3328  -14.9995 O   0  0  0  0  0  0  0  0  0  0  0  0
  -17.2467    3.3610  -16.3763 C   0  0  0  0  0  0  0  0  0  0  0  0
  -17.6484    0.4279  -14.9002 O   0  0  0  0  0  0  0  0  0  0  0  0
  -16.6164    0.4494  -13.8889 C   0  0  0  0  0  0  0  0  0  0  0  0
  -16.0030   -0.9538  -13.7857 C   0  0  0  0  0  0  0  0  0  0  0  0
  -15.5944   -1.3936  -12.3619 C   0  0  0  0  0  0  0  0  0  0  0  0
  -15.9988   -2.7475  -11.9343 N   0  0  0  0  0  0  0  0  0  0  0  0
  -16.6721   -4.8101  -13.2071 C   0  0  0  0  0  0  0  0  0  0  0  0
  -15.5774   -3.7935  -12.8823 C   0  0  0  0  0  0  0  0  0  0  0  0
  -15.5891   -3.0264  -10.5412 C   0  0  0  0  0  0  0  0  0  0  0  0
  -14.1985   -3.6266  -10.3242 C   0  0  0  0  0  0  0  0  0  0  0  0
 47 48  1  0  0  0
 48 46  1  0  0  0
 46 49  1  0  0  0
 46 45  1  0  0  0
 49 50  1  0  0  0
 45 44  1  0  0  0
 44 43  1  0  0  0
 43 42  1  0  0  0
 42 30  1  0  0  0
 30 31  1  0  0  0
 30 39  2  0  0  0
 31 32  2  0  0  0
 32 33  1  0  0  0
 32 37  1  0  0  0
 33 29  1  0  0  0
 33 34  2  0  0  0
 29  1  1  0  0  0
  1  2  1  0  0  0
  1  6  2  0  0  0
  2  3  2  0  0  0
  3  4  1  0  0  0
  4  8  1  0  0  0
  4  5  2  0  0  0
  8 10  1  0  0  0
  8  9  1  0  0  0
 10 11  1  0  0  0
 10 20  2  0  0  0
 11 12  2  0  0  0
 12 13  1  0  0  0
 13 14  2  0  0  0
 14 15  1  0  0  0
 14 20  1  0  0  0
 15 16  1  0  0  0
 15 21  1  0  0  0
 16 17  2  0  0  0
 17 22  1  0  0  0
 17 18  1  0  0  0
 22 23  1  0  0  0
 22 28  2  0  0  0
 23 24  2  0  0  0
 24 25  1  0  0  0
 25 26  1  0  0  0
 25 27  2  0  0  0
 27 28  1  0  0  0
 18 19  2  0  0  0
 18 20  1  0  0  0
  5  6  1  0  0  0
  6  7  1  0  0  0
 34 35  1  0  0  0
 35 36  2  0  0  0
 36 37  1  0  0  0
 37 38  2  0  0  0
 38 39  1  0  0  0
 39 40  1  0  0  0
 40 41  1  0  0  0
M  END
> <minimizedAffinity>
-8.23700

$$$$
