CHEMBL3966429


 39 43  0  0  0  0  0  0  0  0999 V2000
  -28.9065   -5.3457   -6.9717 C   0  0  0  0  0  0  0  0  0  0  0  0
  -28.7233   -4.3914   -7.9871 C   0  0  0  0  0  0  0  0  0  0  0  0
  -28.3368   -3.0560   -7.6880 C   0  0  0  0  0  0  0  0  0  0  0  0
  -28.1190   -2.0166   -8.6029 C   0  0  0  0  0  0  0  0  0  0  0  0
  -27.7069   -0.7897   -8.2149 N   0  0  0  0  0  0  0  0  0  0  0  0
  -27.5200   -0.5903   -6.9137 C   0  0  0  0  0  0  0  0  0  0  0  0
  -27.7142   -1.4943   -5.9635 N   0  0  0  0  0  0  0  0  0  0  0  0
  -28.1140   -2.7008   -6.3684 C   0  0  0  0  0  0  0  0  0  0  0  0
  -28.2783   -3.6482   -5.3890 C   0  0  0  0  0  0  0  0  0  0  0  0
  -28.6648   -4.9797   -5.6420 C   0  0  0  0  0  0  0  0  0  0  0  0
  -28.3694   -7.1457   -8.4331 C   0  0  0  0  0  0  0  0  0  0  0  0
  -29.2272   -6.5823   -7.4530 O   0  0  0  0  0  0  0  0  0  0  0  0
  -28.3369   -2.2444   -9.9879 N   0  0  0  0  0  0  0  0  0  0  0  0
  -29.2722   -1.9360  -10.2336 H   0  0  0  0  0  0  0  0  0  0  0  0
  -27.3752   -1.9574  -10.9796 C   0  0  0  0  0  0  0  0  0  0  0  0
  -27.7702   -1.7347  -12.3069 C   0  0  0  0  0  0  0  0  0  0  0  0
  -26.8273   -1.5134  -13.3095 C   0  0  0  0  0  0  0  0  0  0  0  0
  -25.4698   -1.5056  -12.9934 C   0  0  0  0  0  0  0  0  0  0  0  0
  -24.3492   -1.2596  -14.2838 Cl  0  0  0  0  0  0  0  0  0  0  0  0
  -25.0635   -1.7015  -11.6680 C   0  0  0  0  0  0  0  0  0  0  0  0
  -23.3979   -1.7073  -11.2050 Cl  0  0  0  0  0  0  0  0  0  0  0  0
  -26.0145   -1.9169  -10.6639 C   0  0  0  0  0  0  0  0  0  0  0  0
  -28.7631   -5.9086   -4.6175 O   0  0  0  0  0  0  0  0  0  0  0  0
  -27.5442   -6.6438   -4.4253 C   0  0  0  0  0  0  0  0  0  0  0  0
  -27.6909   -8.1467   -4.3030 C   0  0  0  0  0  0  0  0  0  0  0  0
  -27.4152   -8.8447   -5.6377 C   0  0  0  0  0  0  0  0  0  0  0  0
  -27.6161  -10.2792   -5.4320 N   0  0  0  0  0  0  0  0  0  0  0  0
  -26.6615  -11.2897   -5.4354 C   0  0  0  0  0  0  0  0  0  0  0  0
  -26.9599  -12.4652   -5.2270 O   0  0  0  0  0  0  0  0  0  0  0  0
  -28.9921  -10.5851   -5.0205 C   0  0  0  0  0  0  0  0  0  0  0  0
  -29.3750   -9.7714   -3.7755 C   0  0  0  0  0  0  0  0  0  0  0  0
  -29.0726   -8.3761   -3.9242 O   0  0  0  0  0  0  0  0  0  0  0  0
  -25.2360  -11.0074   -5.7382 C   0  0  0  0  0  0  0  0  0  0  0  0
  -24.3265  -10.4161   -4.8592 C   0  0  0  0  0  0  0  0  0  0  0  0
  -23.0301  -10.1365   -5.2924 C   0  0  0  0  0  0  0  0  0  0  0  0
  -22.6703  -10.5203   -6.5712 C   0  0  0  0  0  0  0  0  0  0  0  0
  -21.1037  -10.1861   -7.1778 Cl  0  0  0  0  0  0  0  0  0  0  0  0
  -23.4882  -11.1663   -7.4228 N   0  0  0  0  0  0  0  0  0  0  0  0
  -24.7501  -11.4047   -6.9813 C   0  0  0  0  0  0  0  0  0  0  0  0
 11 12  1  0  0  0
 12  1  1  0  0  0
  1  2  1  0  0  0
  1 10  2  0  0  0
  2  3  2  0  0  0
  3  4  1  0  0  0
  3  8  1  0  0  0
  4 13  1  0  0  0
  4  5  2  0  0  0
 13 15  1  0  0  0
 13 14  1  0  0  0
 15 16  1  0  0  0
 15 22  2  0  0  0
 16 17  2  0  0  0
 17 18  1  0  0  0
 18 19  1  0  0  0
 18 20  2  0  0  0
 20 21  1  0  0  0
 20 22  1  0  0  0
  5  6  1  0  0  0
  6  7  2  0  0  0
  7  8  1  0  0  0
  8  9  2  0  0  0
  9 10  1  0  0  0
 10 23  1  0  0  0
 23 24  1  0  0  0
 24 25  1  0  0  0
 25 26  1  0  0  0
 25 32  1  0  0  0
 26 27  1  0  0  0
 27 28  1  0  0  0
 27 30  1  0  0  0
 28 29  2  0  0  0
 28 33  1  0  0  0
 33 34  1  0  0  0
 33 39  2  0  0  0
 34 35  2  0  0  0
 35 36  1  0  0  0
 36 37  1  0  0  0
 36 38  2  0  0  0
 38 39  1  0  0  0
 30 31  1  0  0  0
 31 32  1  0  0  0
M  END
> <minimizedAffinity>
-9.05951

$$$$
