CHEMBL301018


 24 26  0  0  0  0  0  0  0  0999 V2000
  -28.4230   -0.7525   -6.3423 C   0  0  0  0  0  0  0  0  0  0  0  0
  -29.2159   -1.1851   -5.2624 C   0  0  0  0  0  0  0  0  0  0  0  0
  -29.4262   -2.5259   -4.9851 C   0  0  0  0  0  0  0  0  0  0  0  0
  -30.0929   -2.8506   -3.8736 N   0  0  0  0  0  0  0  0  0  0  0  0
  -30.1964   -4.1550   -3.6033 C   0  0  0  0  0  0  0  0  0  0  0  0
  -29.7009   -5.1521   -4.3388 N   0  0  0  0  0  0  0  0  0  0  0  0
  -29.0450   -4.8205   -5.4660 C   0  0  0  0  0  0  0  0  0  0  0  0
  -28.8903   -3.4782   -5.8536 C   0  0  0  0  0  0  0  0  0  0  0  0
  -28.2240   -3.0465   -7.0226 C   0  0  0  0  0  0  0  0  0  0  0  0
  -27.9622   -1.6946   -7.2653 C   0  0  0  0  0  0  0  0  0  0  0  0
  -29.2277    1.4548   -6.6250 C   0  0  0  0  0  0  0  0  0  0  0  0
  -28.1078    0.5724   -6.4959 O   0  0  0  0  0  0  0  0  0  0  0  0
  -28.4687   -5.8433   -6.2724 N   0  0  0  0  0  0  0  0  0  0  0  0
  -27.6528   -6.2163   -5.7950 H   0  0  0  0  0  0  0  0  0  0  0  0
  -29.1455   -6.8514   -6.9962 C   0  0  0  0  0  0  0  0  0  0  0  0
  -28.4870   -7.6952   -7.9015 C   0  0  0  0  0  0  0  0  0  0  0  0
  -29.1788   -8.6740   -8.6150 C   0  0  0  0  0  0  0  0  0  0  0  0
  -30.5340   -8.8528   -8.3878 C   0  0  0  0  0  0  0  0  0  0  0  0
  -31.1882   -9.7867   -9.0954 F   0  0  0  0  0  0  0  0  0  0  0  0
  -31.1956   -8.0833   -7.4365 C   0  0  0  0  0  0  0  0  0  0  0  0
  -32.8709   -8.3314   -7.1202 Cl  0  0  0  0  0  0  0  0  0  0  0  0
  -30.5028   -7.0941   -6.7329 C   0  0  0  0  0  0  0  0  0  0  0  0
  -27.2315   -1.5308   -8.4060 O   0  0  0  0  0  0  0  0  0  0  0  0
  -27.8344   -1.7313   -9.6714 C   0  0  0  0  0  0  0  0  0  0  0  0
 11 12  1  0  0  0
 12  1  1  0  0  0
  1  2  1  0  0  0
  1 10  2  0  0  0
  2  3  2  0  0  0
  3  4  1  0  0  0
  3  8  1  0  0  0
  4  5  2  0  0  0
  5  6  1  0  0  0
  6  7  2  0  0  0
  7 13  1  0  0  0
  7  8  1  0  0  0
 13 15  1  0  0  0
 13 14  1  0  0  0
 15 16  1  0  0  0
 15 22  2  0  0  0
 16 17  2  0  0  0
 17 18  1  0  0  0
 18 19  1  0  0  0
 18 20  2  0  0  0
 20 21  1  0  0  0
 20 22  1  0  0  0
  8  9  2  0  0  0
  9 10  1  0  0  0
 10 23  1  0  0  0
 23 24  1  0  0  0
M  END
> <minimizedAffinity>
-7.90338

$$$$
