CHEMBL3690475


 35 38  0  0  0  0  0  0  0  0999 V2000
  -29.2941   -4.7980   -6.9621 C   0  0  0  0  0  0  0  0  0  0  0  0
  -28.1808   -5.4855   -7.6338 C   0  0  0  0  0  0  0  0  0  0  0  0
  -28.3095   -6.7657   -8.0288 C   0  0  0  0  0  0  0  0  0  0  0  0
  -29.5175   -7.4383   -7.8241 N   0  0  0  0  0  0  0  0  0  0  0  0
  -29.9388   -8.7213   -8.1629 C   0  0  0  0  0  0  0  0  0  0  0  0
  -31.2202   -8.8001   -7.6284 C   0  0  0  0  0  0  0  0  0  0  0  0
  -31.6067   -7.6443   -7.0192 N   0  0  0  0  0  0  0  0  0  0  0  0
  -30.5861   -6.8337   -7.1652 C   0  0  0  0  0  0  0  0  0  0  0  0
  -30.4445   -5.4817   -6.7544 C   0  0  0  0  0  0  0  0  0  0  0  0
  -29.1119   -0.6469   -5.9425 C   0  0  0  0  0  0  0  0  0  0  0  0
  -29.8586   -1.5159   -5.1558 C   0  0  0  0  0  0  0  0  0  0  0  0
  -29.9145   -2.8794   -5.4470 C   0  0  0  0  0  0  0  0  0  0  0  0
  -29.2258   -3.3751   -6.5415 C   0  0  0  0  0  0  0  0  0  0  0  0
  -28.4613   -2.5423   -7.2724 N   0  0  0  0  0  0  0  0  0  0  0  0
  -28.4018   -1.1808   -6.9617 N   0  0  0  0  0  0  0  0  0  0  0  0
  -30.3661    1.4073   -5.7692 C   0  0  0  0  0  0  0  0  0  0  0  0
  -29.0788    0.7287   -5.6664 N   0  0  0  0  0  0  0  0  0  0  0  0
  -28.1866    1.1651   -4.5982 C   0  0  0  0  0  0  0  0  0  0  0  0
  -29.2068   -9.7666   -8.8924 C   0  0  0  0  0  0  0  0  0  0  0  0
  -29.5474  -10.0039  -10.2336 C   0  0  0  0  0  0  0  0  0  0  0  0
  -28.8526  -10.9365  -10.9952 C   0  0  0  0  0  0  0  0  0  0  0  0
  -27.8005  -11.6501  -10.4297 C   0  0  0  0  0  0  0  0  0  0  0  0
  -27.4165  -11.4304   -9.1049 C   0  0  0  0  0  0  0  0  0  0  0  0
  -28.1282  -10.4841   -8.3432 C   0  0  0  0  0  0  0  0  0  0  0  0
  -26.3363  -12.1132   -8.4919 N   0  0  0  0  0  0  0  0  0  0  0  0
  -25.3444  -11.5467   -7.7257 C   0  0  0  0  0  0  0  0  0  0  0  0
  -25.2311  -10.3721   -7.4127 O   0  0  0  0  0  0  0  0  0  0  0  0
  -24.3935  -12.4658   -7.3338 N   0  0  0  0  0  0  0  0  0  0  0  0
  -26.2915  -13.1093   -8.6320 H   0  0  0  0  0  0  0  0  0  0  0  0
  -24.7157  -13.4109   -7.1853 H   0  0  0  0  0  0  0  0  0  0  0  0
  -23.2990  -11.9955   -6.4731 C   0  0  0  0  0  0  0  0  0  0  0  0
  -21.9757  -11.6783   -7.1842 C   0  0  0  0  0  0  0  0  0  0  0  0
  -21.9245  -12.2135   -8.4259 F   0  0  0  0  0  0  0  0  0  0  0  0
  -21.8456  -10.3352   -7.3344 F   0  0  0  0  0  0  0  0  0  0  0  0
  -20.9001  -12.1086   -6.4933 F   0  0  0  0  0  0  0  0  0  0  0  0
 16 17  1  0  0  0
 17 18  1  0  0  0
 17 10  1  0  0  0
 10 11  1  0  0  0
 10 15  2  0  0  0
 11 12  2  0  0  0
 12 13  1  0  0  0
 13  1  1  0  0  0
 13 14  2  0  0  0
  1  2  1  0  0  0
  1  9  2  0  0  0
  2  3  2  0  0  0
  3  4  1  0  0  0
  4  5  1  0  0  0
  4  8  1  0  0  0
  5 19  1  0  0  0
  5  6  2  0  0  0
 19 20  1  0  0  0
 19 24  2  0  0  0
 20 21  2  0  0  0
 21 22  1  0  0  0
 22 23  2  0  0  0
 23 25  1  0  0  0
 23 24  1  0  0  0
 25 26  1  0  0  0
 25 29  1  0  0  0
 26 27  2  0  0  0
 26 28  1  0  0  0
 28 31  1  0  0  0
 28 30  1  0  0  0
 31 32  1  0  0  0
 32 33  1  0  0  0
 32 34  1  0  0  0
 32 35  1  0  0  0
  6  7  1  0  0  0
  7  8  2  0  0  0
  8  9  1  0  0  0
 14 15  1  0  0  0
M  END
> <minimizedAffinity>
-8.51083

$$$$
