CHEMBL3984461


 36 39  0  0  0  0  0  0  0  0999 V2000
  -29.1696   -6.6222   -4.9311 N   0  0  0  0  0  0  0  0  0  0  0  0
  -28.7967   -5.4940   -5.7547 C   0  0  0  0  0  0  0  0  0  0  0  0
  -28.7061   -5.7367   -7.0688 C   0  0  0  0  0  0  0  0  0  0  0  0
  -28.5453   -4.7261   -7.9184 C   0  0  0  0  0  0  0  0  0  0  0  0
  -28.2473   -3.4615   -7.5496 C   0  0  0  0  0  0  0  0  0  0  0  0
  -27.3381   -3.2478   -8.3803 N   0  0  0  0  0  0  0  0  0  0  0  0
  -27.7687   -2.6444   -9.4403 C   0  0  0  0  0  0  0  0  0  0  0  0
  -27.7185   -1.3540   -9.3669 C   0  0  0  0  0  0  0  0  0  0  0  0
  -27.9180   -1.3005   -7.7176 N   0  0  0  0  0  0  0  0  0  0  0  0
  -28.2284   -2.6398   -6.5654 C   0  0  0  0  0  0  0  0  0  0  0  0
  -28.5356   -3.9921   -5.4532 C   0  0  0  0  0  0  0  0  0  0  0  0
  -26.9572   -1.3944  -11.0454 C   0  0  0  0  0  0  0  0  0  0  0  0
  -27.7023   -1.7359  -12.4178 C   0  0  0  0  0  0  0  0  0  0  0  0
  -26.9937   -1.7846  -13.5813 N   0  0  0  0  0  0  0  0  0  0  0  0
  -25.7518   -1.4305  -13.2275 N   0  0  0  0  0  0  0  0  0  0  0  0
  -25.7154   -1.2104  -11.7562 C   0  0  0  0  0  0  0  0  0  0  0  0
  -24.6535   -1.3220  -14.2886 C   0  0  0  0  0  0  0  0  0  0  0  0
  -25.1208   -0.9467  -15.7228 C   0  0  0  0  0  0  0  0  0  0  0  0
  -23.6354   -0.2724  -13.8622 C   0  0  0  0  0  0  0  0  0  0  0  0
  -28.7823   -7.9553   -5.1959 C   0  0  0  0  0  0  0  0  0  0  0  0
  -27.5761   -8.4467   -4.7077 C   0  0  0  0  0  0  0  0  0  0  0  0
  -27.1190   -9.7336   -4.7158 C   0  0  0  0  0  0  0  0  0  0  0  0
  -28.0201  -10.6567   -5.1540 C   0  0  0  0  0  0  0  0  0  0  0  0
  -29.3066  -10.2636   -5.5496 C   0  0  0  0  0  0  0  0  0  0  0  0
  -29.6291   -8.9081   -5.7161 C   0  0  0  0  0  0  0  0  0  0  0  0
  -25.9215  -10.1225   -4.1882 O   0  0  0  0  0  0  0  0  0  0  0  0
  -25.0978   -9.1021   -3.5924 C   0  0  0  0  0  0  0  0  0  0  0  0
  -30.3299  -11.1594   -5.7142 O   0  0  0  0  0  0  0  0  0  0  0  0
  -31.2922  -10.7970   -6.7075 C   0  0  0  0  0  0  0  0  0  0  0  0
  -29.8201   -6.3254   -3.5597 C   0  0  0  0  0  0  0  0  0  0  0  0
  -31.3326   -5.9965   -3.5674 C   0  0  0  0  0  0  0  0  0  0  0  0
  -32.0446   -6.4858   -4.7111 O   0  0  0  0  0  0  0  0  0  0  0  0
  -31.4412   -6.5809   -5.4628 H   0  0  0  0  0  0  0  0  0  0  0  0
  -31.6325   -4.5513   -3.8065 C   0  0  0  0  0  0  0  0  0  0  0  0
  -30.4903   -2.7732   -2.8501 C   0  0  0  0  0  0  0  0  0  0  0  0
  -31.3407   -3.8592   -2.5821 O   0  0  0  0  0  0  0  0  0  0  0  0
 35 36  1  0  0  0
 36 34  1  0  0  0
 34 31  1  0  0  0
 31 32  1  0  0  0
 31 30  1  0  0  0
 32 33  1  0  0  0
 30  1  1  0  0  0
  1 20  1  0  0  0
  1  2  1  0  0  0
 20 21  1  0  0  0
 20 25  2  0  0  0
 21 22  2  0  0  0
 22 26  1  0  0  0
 22 23  1  0  0  0
 26 27  1  0  0  0
 23 24  2  0  0  0
 24 28  1  0  0  0
 24 25  1  0  0  0
 28 29  1  0  0  0
  2  3  1  0  0  0
  2 11  2  0  0  0
  3  4  2  0  0  0
  4  5  1  0  0  0
  5  6  1  0  0  0
  5 10  2  0  0  0
  6  7  2  0  0  0
  7  8  1  0  0  0
  8 12  1  0  0  0
  8  9  2  0  0  0
 12 13  1  0  0  0
 12 16  2  0  0  0
 13 14  2  0  0  0
 14 15  1  0  0  0
 15 17  1  0  0  0
 15 16  1  0  0  0
 17 18  1  0  0  0
 17 19  1  0  0  0
  9 10  1  0  0  0
 10 11  1  0  0  0
M  END
> <minimizedAffinity>
-8.37562

$$$$
