CHEMBL1241859


 29 32  0  0  0  0  0  0  0  0999 V2000
  -29.4222   -8.8478   -4.8381 N   0  0  0  0  0  0  0  0  0  0  0  0
  -29.4665   -7.4600   -4.7711 C   0  0  0  0  0  0  0  0  0  0  0  0
  -29.8091   -6.9475   -3.5713 N   0  0  0  0  0  0  0  0  0  0  0  0
  -29.8278   -5.6120   -3.4195 C   0  0  0  0  0  0  0  0  0  0  0  0
  -29.5205   -4.6757   -4.3297 N   0  0  0  0  0  0  0  0  0  0  0  0
  -29.1876   -5.2280   -5.5106 C   0  0  0  0  0  0  0  0  0  0  0  0
  -29.1658   -6.5801   -5.8251 C   0  0  0  0  0  0  0  0  0  0  0  0
  -28.8518   -6.6249   -7.2237 C   0  0  0  0  0  0  0  0  0  0  0  0
  -28.5988   -5.3845   -7.6931 N   0  0  0  0  0  0  0  0  0  0  0  0
  -28.8310   -4.5616   -6.6515 N   0  0  0  0  0  0  0  0  0  0  0  0
  -29.4665   -9.2350   -3.9006 H   0  0  0  0  0  0  0  0  0  0  0  0
  -28.6654   -9.2070   -5.4077 H   0  0  0  0  0  0  0  0  0  0  0  0
  -28.7991   -7.7716   -8.1486 C   0  0  0  0  0  0  0  0  0  0  0  0
  -27.6239   -8.1290   -8.8314 C   0  0  0  0  0  0  0  0  0  0  0  0
  -27.6051   -9.1975   -9.7381 C   0  0  0  0  0  0  0  0  0  0  0  0
  -28.7491   -9.9661   -9.9218 C   0  0  0  0  0  0  0  0  0  0  0  0
  -28.7197  -11.2890  -11.0259 Cl  0  0  0  0  0  0  0  0  0  0  0  0
  -29.9037   -9.6679   -9.1997 C   0  0  0  0  0  0  0  0  0  0  0  0
  -31.0377  -10.4263   -9.3041 O   0  0  0  0  0  0  0  0  0  0  0  0
  -29.9354   -8.5778   -8.3305 C   0  0  0  0  0  0  0  0  0  0  0  0
  -30.8300  -11.1763   -9.8923 H   0  0  0  0  0  0  0  0  0  0  0  0
  -29.0014   -3.1483   -6.9008 C   0  0  0  0  0  0  0  0  0  0  0  0
  -27.8179   -2.1787   -6.6791 C   0  0  0  0  0  0  0  0  0  0  0  0
  -27.4353   -1.9130   -5.2108 C   0  0  0  0  0  0  0  0  0  0  0  0
  -27.8321   -0.5526   -4.6376 C   0  0  0  0  0  0  0  0  0  0  0  0
  -27.7038    0.5550   -5.5843 N   0  0  0  0  0  0  0  0  0  0  0  0
  -28.4808    0.2866   -6.7907 C   0  0  0  0  0  0  0  0  0  0  0  0
  -27.8918   -0.9042   -7.5303 C   0  0  0  0  0  0  0  0  0  0  0  0
  -26.7227    0.6844   -5.8323 H   0  0  0  0  0  0  0  0  0  0  0  0
  1  2  1  0  0  0
  1 11  1  0  0  0
  1 12  1  0  0  0
  2  3  1  0  0  0
  2  7  2  0  0  0
  3  4  2  0  0  0
  4  5  1  0  0  0
  5  6  2  0  0  0
  6  7  1  0  0  0
  6 10  1  0  0  0
  7  8  1  0  0  0
  8 13  1  0  0  0
  8  9  2  0  0  0
 13 14  1  0  0  0
 13 20  2  0  0  0
 14 15  2  0  0  0
 15 16  1  0  0  0
 16 17  1  0  0  0
 16 18  2  0  0  0
 18 19  1  0  0  0
 18 20  1  0  0  0
 19 21  1  0  0  0
  9 10  1  0  0  0
 10 22  1  0  0  0
 22 23  1  0  0  0
 23 24  1  0  0  0
 23 28  1  0  0  0
 24 25  1  0  0  0
 25 26  1  0  0  0
 26 27  1  0  0  0
 26 29  1  0  0  0
 27 28  1  0  0  0
M  END
> <minimizedAffinity>
-8.53383

$$$$
