CHEMBL3287311


 45 49  0  0  0  0  0  0  0  0999 V2000
  -24.5111   -1.6449  -12.7457 C   0  0  0  0  0  0  0  0  0  0  0  0
  -23.5443   -1.2886  -11.8058 C   0  0  0  0  0  0  0  0  0  0  0  0
  -22.5143   -0.4118  -12.1527 C   0  0  0  0  0  0  0  0  0  0  0  0
  -22.4580    0.1632  -13.4236 C   0  0  0  0  0  0  0  0  0  0  0  0
  -23.4177   -0.2053  -14.3723 C   0  0  0  0  0  0  0  0  0  0  0  0
  -24.4412   -1.0919  -14.0221 C   0  0  0  0  0  0  0  0  0  0  0  0
  -25.3756   -1.3954  -14.9372 F   0  0  0  0  0  0  0  0  0  0  0  0
  -21.4751    1.1122  -13.7855 N   0  0  0  0  0  0  0  0  0  0  0  0
  -20.4523    0.9149  -14.6993 C   0  0  0  0  0  0  0  0  0  0  0  0
  -20.1904   -0.1089  -15.3150 O   0  0  0  0  0  0  0  0  0  0  0  0
  -21.4369    1.9718  -13.2441 H   0  0  0  0  0  0  0  0  0  0  0  0
  -19.5687    2.1055  -14.9046 C   0  0  0  0  0  0  0  0  0  0  0  0
  -19.9096    3.3602  -14.0990 C   0  0  0  0  0  0  0  0  0  0  0  0
  -20.1723    3.3352  -15.5683 C   0  0  0  0  0  0  0  0  0  0  0  0
  -18.1113    1.7972  -15.0752 C   0  0  0  0  0  0  0  0  0  0  0  0
  -17.5710    2.2302  -16.0871 O   0  0  0  0  0  0  0  0  0  0  0  0
  -17.5334    1.0414  -14.0686 N   0  0  0  0  0  0  0  0  0  0  0  0
  -18.1427    0.6912  -13.3378 H   0  0  0  0  0  0  0  0  0  0  0  0
  -16.1863    0.6107  -14.0445 C   0  0  0  0  0  0  0  0  0  0  0  0
  -15.8130   -0.6758  -13.6434 C   0  0  0  0  0  0  0  0  0  0  0  0
  -14.4677   -1.0357  -13.5357 C   0  0  0  0  0  0  0  0  0  0  0  0
  -13.4801   -0.1085  -13.8429 C   0  0  0  0  0  0  0  0  0  0  0  0
  -11.6625   -0.5758  -13.6224 Br  0  0  0  0  0  0  0  0  0  0  0  0
  -13.8291    1.1607  -14.2994 C   0  0  0  0  0  0  0  0  0  0  0  0
  -15.1818    1.5153  -14.4149 C   0  0  0  0  0  0  0  0  0  0  0  0
  -25.5809   -2.4622  -12.4530 O   0  0  0  0  0  0  0  0  0  0  0  0
  -27.3121   -1.9538   -9.3861 C   0  0  0  0  0  0  0  0  0  0  0  0
  -28.2700   -1.0740   -9.7236 N   0  0  0  0  0  0  0  0  0  0  0  0
  -28.3153   -0.6675  -11.0036 C   0  0  0  0  0  0  0  0  0  0  0  0
  -27.4431   -1.1064  -11.9627 C   0  0  0  0  0  0  0  0  0  0  0  0
  -26.5014   -2.0016  -11.5196 C   0  0  0  0  0  0  0  0  0  0  0  0
  -26.4317   -2.4562  -10.2534 N   0  0  0  0  0  0  0  0  0  0  0  0
  -27.1641   -2.3598   -8.0595 N   0  0  0  0  0  0  0  0  0  0  0  0
  -26.9021   -3.3398   -8.0783 H   0  0  0  0  0  0  0  0  0  0  0  0
  -29.8359   -2.6538   -5.4566 C   0  0  0  0  0  0  0  0  0  0  0  0
  -29.6208   -1.4517   -4.7710 C   0  0  0  0  0  0  0  0  0  0  0  0
  -28.6374   -0.5560   -5.1930 C   0  0  0  0  0  0  0  0  0  0  0  0
  -27.8370   -0.8628   -6.2910 C   0  0  0  0  0  0  0  0  0  0  0  0
  -28.0351   -2.0481   -7.0027 C   0  0  0  0  0  0  0  0  0  0  0  0
  -29.0230   -2.9413   -6.5642 C   0  0  0  0  0  0  0  0  0  0  0  0
  -30.8281   -3.6832   -4.9822 C   0  0  0  0  0  0  0  0  0  0  0  0
  -31.2737   -5.9656   -3.3664 C   0  0  0  0  0  0  0  0  0  0  0  0
  -30.0575   -5.1914   -4.4064 S   0  0  0  0  0  0  0  0  0  0  0  0
  -28.9021   -4.8712   -3.5882 O   0  0  0  0  0  0  0  0  0  0  0  0
  -29.8934   -6.0503   -5.5676 O   0  0  0  0  0  0  0  0  0  0  0  0
 42 43  1  0  0  0
 43 44  2  0  0  0
 43 45  2  0  0  0
 43 41  1  0  0  0
 41 35  1  0  0  0
 35 36  1  0  0  0
 35 40  2  0  0  0
 36 37  2  0  0  0
 37 38  1  0  0  0
 38 39  2  0  0  0
 39 33  1  0  0  0
 39 40  1  0  0  0
 33 27  1  0  0  0
 33 34  1  0  0  0
 27 28  1  0  0  0
 27 32  2  0  0  0
 28 29  2  0  0  0
 29 30  1  0  0  0
 30 31  2  0  0  0
 31 26  1  0  0  0
 31 32  1  0  0  0
 26  1  1  0  0  0
  1  2  1  0  0  0
  1  6  2  0  0  0
  2  3  2  0  0  0
  3  4  1  0  0  0
  4  8  1  0  0  0
  4  5  2  0  0  0
  8  9  1  0  0  0
  8 11  1  0  0  0
  9 10  2  0  0  0
  9 12  1  0  0  0
 12 15  1  0  0  0
 12 13  1  0  0  0
 12 14  1  0  0  0
 15 16  2  0  0  0
 15 17  1  0  0  0
 17 19  1  0  0  0
 17 18  1  0  0  0
 19 20  1  0  0  0
 19 25  2  0  0  0
 20 21  2  0  0  0
 21 22  1  0  0  0
 22 23  1  0  0  0
 22 24  2  0  0  0
 24 25  1  0  0  0
 13 14  1  0  0  0
  5  6  1  0  0  0
  6  7  1  0  0  0
M  END
> <minimizedAffinity>
-10.52360

$$$$
