CHEMBL606410


 28 31  0  0  0  0  0  0  0  0999 V2000
  -28.9482   -8.8081   -5.9799 C   0  0  0  0  0  0  0  0  0  0  0  0
  -29.1457   -8.8178   -7.3072 N   0  0  0  0  0  0  0  0  0  0  0  0
  -29.7510   -7.7499   -7.8427 C   0  0  0  0  0  0  0  0  0  0  0  0
  -30.1296   -6.6678   -7.0912 C   0  0  0  0  0  0  0  0  0  0  0  0
  -30.0785   -6.8216   -5.7285 C   0  0  0  0  0  0  0  0  0  0  0  0
  -29.5041   -7.9012   -5.1592 N   0  0  0  0  0  0  0  0  0  0  0  0
  -30.4277   -5.6992   -4.8528 C   0  0  0  0  0  0  0  0  0  0  0  0
  -31.5658   -5.7154   -4.0273 C   0  0  0  0  0  0  0  0  0  0  0  0
  -31.8880   -4.6093   -3.2289 C   0  0  0  0  0  0  0  0  0  0  0  0
  -31.0239   -3.5169   -3.1627 C   0  0  0  0  0  0  0  0  0  0  0  0
  -29.8873   -3.4802   -3.9656 C   0  0  0  0  0  0  0  0  0  0  0  0
  -29.6632   -4.5113   -4.8837 C   0  0  0  0  0  0  0  0  0  0  0  0
  -28.7403   -4.2501   -5.9157 N   0  0  0  0  0  0  0  0  0  0  0  0
  -28.9438   -4.5438   -7.2493 C   0  0  0  0  0  0  0  0  0  0  0  0
  -28.1205   -4.1762   -8.0881 O   0  0  0  0  0  0  0  0  0  0  0  0
  -30.2221   -5.2892   -7.6535 C   0  0  0  0  0  0  0  0  0  0  0  0
  -27.9952   -3.5841   -5.7525 H   0  0  0  0  0  0  0  0  0  0  0  0
  -28.0094   -9.7436   -5.5451 N   0  0  0  0  0  0  0  0  0  0  0  0
  -28.4980  -10.5504   -5.1836 H   0  0  0  0  0  0  0  0  0  0  0  0
  -23.8464  -10.3473   -5.7111 C   0  0  0  0  0  0  0  0  0  0  0  0
  -24.6556  -10.7003   -6.7859 C   0  0  0  0  0  0  0  0  0  0  0  0
  -26.0308  -10.4332   -6.7381 C   0  0  0  0  0  0  0  0  0  0  0  0
  -26.6182   -9.8190   -5.6210 C   0  0  0  0  0  0  0  0  0  0  0  0
  -25.7729   -9.4005   -4.5933 C   0  0  0  0  0  0  0  0  0  0  0  0
  -24.4049   -9.6670   -4.6340 C   0  0  0  0  0  0  0  0  0  0  0  0
  -22.5135  -10.5990   -5.5799 O   0  0  0  0  0  0  0  0  0  0  0  0
  -20.9464  -10.0332   -7.2686 C   0  0  0  0  0  0  0  0  0  0  0  0
  -21.8319  -11.1328   -6.7104 C   0  0  0  0  0  0  0  0  0  0  0  0
 27 28  1  0  0  0
 28 26  1  0  0  0
 26 20  1  0  0  0
 20 21  1  0  0  0
 20 25  2  0  0  0
 21 22  2  0  0  0
 22 23  1  0  0  0
 23 18  1  0  0  0
 23 24  2  0  0  0
 18  1  1  0  0  0
 18 19  1  0  0  0
  1  2  1  0  0  0
  1  6  2  0  0  0
  2  3  2  0  0  0
  3  4  1  0  0  0
  4  5  2  0  0  0
  4 16  1  0  0  0
  5  6  1  0  0  0
  5  7  1  0  0  0
  7  8  1  0  0  0
  7 12  2  0  0  0
  8  9  2  0  0  0
  9 10  1  0  0  0
 10 11  2  0  0  0
 11 12  1  0  0  0
 12 13  1  0  0  0
 13 14  1  0  0  0
 13 17  1  0  0  0
 14 15  2  0  0  0
 14 16  1  0  0  0
 24 25  1  0  0  0
M  END
> <minimizedAffinity>
-8.19965

$$$$
