CHEMBL3752096


 38 42  0  0  0  0  0  0  0  0999 V2000
  -30.6884   -9.0639   -8.0596 N   0  0  0  0  0  0  0  0  0  0  0  0
  -30.3658  -10.4660   -7.6738 C   0  0  0  0  0  0  0  0  0  0  0  0
  -29.5070  -10.6655   -6.3967 C   0  0  0  0  0  0  0  0  0  0  0  0
  -28.3619   -9.7436   -6.3390 N   0  0  0  0  0  0  0  0  0  0  0  0
  -28.5552   -8.3798   -6.8429 C   0  0  0  0  0  0  0  0  0  0  0  0
  -29.3976   -8.3384   -8.1343 C   0  0  0  0  0  0  0  0  0  0  0  0
  -27.1206  -10.2213   -5.9338 C   0  0  0  0  0  0  0  0  0  0  0  0
  -26.7989  -10.0844   -4.6298 N   0  0  0  0  0  0  0  0  0  0  0  0
  -25.6286  -10.5902   -4.1070 N   0  0  0  0  0  0  0  0  0  0  0  0
  -24.7745  -11.3008   -4.8739 C   0  0  0  0  0  0  0  0  0  0  0  0
  -25.0719  -11.5324   -6.2376 C   0  0  0  0  0  0  0  0  0  0  0  0
  -24.3012  -12.3720   -7.0908 C   0  0  0  0  0  0  0  0  0  0  0  0
  -24.5209  -12.4570   -8.4642 C   0  0  0  0  0  0  0  0  0  0  0  0
  -25.5222  -11.6993   -9.0320 C   0  0  0  0  0  0  0  0  0  0  0  0
  -26.3405  -10.9260   -8.2054 C   0  0  0  0  0  0  0  0  0  0  0  0
  -26.2064  -10.8883   -6.7950 C   0  0  0  0  0  0  0  0  0  0  0  0
  -23.5235  -11.7078   -4.1716 C   0  0  0  0  0  0  0  0  0  0  0  0
  -22.3296  -11.9397   -4.8824 C   0  0  0  0  0  0  0  0  0  0  0  0
  -21.1448  -12.3085   -4.2301 C   0  0  0  0  0  0  0  0  0  0  0  0
  -21.1190  -12.4391   -2.8451 C   0  0  0  0  0  0  0  0  0  0  0  0
  -22.2878  -12.2546   -2.1187 C   0  0  0  0  0  0  0  0  0  0  0  0
  -23.4771  -11.9335   -2.7807 C   0  0  0  0  0  0  0  0  0  0  0  0
  -31.5689   -8.3933   -7.0727 C   0  0  0  0  0  0  0  0  0  0  0  0
  -30.7798   -6.6180   -5.6078 N   0  0  0  0  0  0  0  0  0  0  0  0
  -31.2310   -6.9188   -6.8722 C   0  0  0  0  0  0  0  0  0  0  0  0
  -31.4447   -6.1303   -7.7900 O   0  0  0  0  0  0  0  0  0  0  0  0
  -30.7740   -7.3576   -4.9156 H   0  0  0  0  0  0  0  0  0  0  0  0
  -29.1906   -3.2854   -4.8718 C   0  0  0  0  0  0  0  0  0  0  0  0
  -29.1389   -4.5406   -6.0317 S   0  0  0  0  0  0  0  0  0  0  0  0
  -30.3364   -5.3935   -5.1835 C   0  0  0  0  0  0  0  0  0  0  0  0
  -30.7567   -4.8324   -4.0748 N   0  0  0  0  0  0  0  0  0  0  0  0
  -30.1328   -3.5976   -3.9010 C   0  0  0  0  0  0  0  0  0  0  0  0
  -30.5268   -2.7808   -2.7196 C   0  0  0  0  0  0  0  0  0  0  0  0
  -28.2750   -2.1808   -5.0266 C   0  0  0  0  0  0  0  0  0  0  0  0
  -27.0644   -2.2142   -4.8396 O   0  0  0  0  0  0  0  0  0  0  0  0
  -28.9645   -1.0392   -5.3068 O   0  0  0  0  0  0  0  0  0  0  0  0
  -28.3272    1.0685   -6.2171 C   0  0  0  0  0  0  0  0  0  0  0  0
  -28.5891   -0.3967   -6.5308 C   0  0  0  0  0  0  0  0  0  0  0  0
 37 38  1  0  0  0
 38 36  1  0  0  0
 36 34  1  0  0  0
 34 35  2  0  0  0
 34 28  1  0  0  0
 28 29  1  0  0  0
 28 32  2  0  0  0
 29 30  1  0  0  0
 30 24  1  0  0  0
 30 31  2  0  0  0
 24 25  1  0  0  0
 24 27  1  0  0  0
 25 26  2  0  0  0
 25 23  1  0  0  0
 23  1  1  0  0  0
  1  2  1  0  0  0
  1  6  1  0  0  0
  2  3  1  0  0  0
  3  4  1  0  0  0
  4  7  1  0  0  0
  4  5  1  0  0  0
  7  8  1  0  0  0
  7 16  2  0  0  0
  8  9  2  0  0  0
  9 10  1  0  0  0
 10 17  1  0  0  0
 10 11  2  0  0  0
 17 18  1  0  0  0
 17 22  2  0  0  0
 18 19  2  0  0  0
 19 20  1  0  0  0
 20 21  2  0  0  0
 21 22  1  0  0  0
 11 12  1  0  0  0
 11 16  1  0  0  0
 12 13  2  0  0  0
 13 14  1  0  0  0
 14 15  2  0  0  0
 15 16  1  0  0  0
  5  6  1  0  0  0
 31 32  1  0  0  0
 32 33  1  0  0  0
M  END
> <minimizedAffinity>
-7.24712

$$$$
