CHEMBL1079846


 42 46  0  0  0  0  0  0  0  0999 V2000
  -28.3415   -2.6278   -7.6340 C   0  0  0  0  0  0  0  0  0  0  0  0
  -28.1022   -2.2941   -6.2920 C   0  0  0  0  0  0  0  0  0  0  0  0
  -28.1925   -3.2313   -5.2623 C   0  0  0  0  0  0  0  0  0  0  0  0
  -28.5930   -4.5244   -5.5478 C   0  0  0  0  0  0  0  0  0  0  0  0
  -28.9141   -4.8724   -6.8649 C   0  0  0  0  0  0  0  0  0  0  0  0
  -28.7783   -3.9293   -7.9100 C   0  0  0  0  0  0  0  0  0  0  0  0
  -29.4799   -6.2038   -7.1181 C   0  0  0  0  0  0  0  0  0  0  0  0
  -30.8140   -6.3904   -7.1044 C   0  0  0  0  0  0  0  0  0  0  0  0
  -31.2828   -7.6688   -7.3274 N   0  0  0  0  0  0  0  0  0  0  0  0
  -32.5397   -8.2085   -7.3088 C   0  0  0  0  0  0  0  0  0  0  0  0
  -32.3521   -9.5594   -7.5212 C   0  0  0  0  0  0  0  0  0  0  0  0
  -31.0229   -9.8568   -7.7118 N   0  0  0  0  0  0  0  0  0  0  0  0
  -30.4148   -8.6948   -7.5884 C   0  0  0  0  0  0  0  0  0  0  0  0
  -28.9879   -8.4240   -7.6395 C   0  0  0  0  0  0  0  0  0  0  0  0
  -28.5641   -7.2070   -7.3884 N   0  0  0  0  0  0  0  0  0  0  0  0
  -28.0871   -9.4246   -7.9354 N   0  0  0  0  0  0  0  0  0  0  0  0
  -28.1061   -9.7039   -8.9118 H   0  0  0  0  0  0  0  0  0  0  0  0
  -27.7727  -10.4803   -7.0035 C   0  0  0  0  0  0  0  0  0  0  0  0
  -26.4765  -10.1920   -6.2931 C   0  0  0  0  0  0  0  0  0  0  0  0
  -26.4738   -9.5893   -5.0321 C   0  0  0  0  0  0  0  0  0  0  0  0
  -25.2565   -9.3166   -4.4260 C   0  0  0  0  0  0  0  0  0  0  0  0
  -24.0606   -9.5934   -4.9845 N   0  0  0  0  0  0  0  0  0  0  0  0
  -24.0813  -10.1578   -6.2117 C   0  0  0  0  0  0  0  0  0  0  0  0
  -25.2451  -10.4638   -6.8996 C   0  0  0  0  0  0  0  0  0  0  0  0
  -27.1619   -0.8861  -10.6766 N   0  0  0  0  0  0  0  0  0  0  0  0
  -27.2066   -1.8781   -9.7063 C   0  0  0  0  0  0  0  0  0  0  0  0
  -26.4804   -2.8669   -9.7553 O   0  0  0  0  0  0  0  0  0  0  0  0
  -28.1469   -1.6880   -8.7032 N   0  0  0  0  0  0  0  0  0  0  0  0
  -27.4105    0.0618  -10.4220 H   0  0  0  0  0  0  0  0  0  0  0  0
  -28.8798   -1.0151   -8.8706 H   0  0  0  0  0  0  0  0  0  0  0  0
  -26.9315   -1.5934  -13.0441 C   0  0  0  0  0  0  0  0  0  0  0  0
  -26.1320   -1.7025  -14.2003 C   0  0  0  0  0  0  0  0  0  0  0  0
  -24.8098   -1.2511  -14.2199 C   0  0  0  0  0  0  0  0  0  0  0  0
  -24.2517   -0.6859  -13.0792 C   0  0  0  0  0  0  0  0  0  0  0  0
  -25.0393   -0.6023  -11.9229 C   0  0  0  0  0  0  0  0  0  0  0  0
  -26.3835   -1.0204  -11.8794 C   0  0  0  0  0  0  0  0  0  0  0  0
  -22.8419   -0.1528  -13.0512 C   0  0  0  0  0  0  0  0  0  0  0  0
  -22.2310   -0.3081  -11.8429 F   0  0  0  0  0  0  0  0  0  0  0  0
  -22.0302   -0.7641  -13.9573 F   0  0  0  0  0  0  0  0  0  0  0  0
  -22.7808    1.1793  -13.3280 F   0  0  0  0  0  0  0  0  0  0  0  0
  -28.6346   -2.9554  -13.9863 C   0  0  0  0  0  0  0  0  0  0  0  0
  -28.2454   -2.0012  -12.9947 O   0  0  0  0  0  0  0  0  0  0  0  0
 41 42  1  0  0  0
 42 31  1  0  0  0
 31 32  1  0  0  0
 31 36  2  0  0  0
 32 33  2  0  0  0
 33 34  1  0  0  0
 34 37  1  0  0  0
 34 35  2  0  0  0
 37 38  1  0  0  0
 37 39  1  0  0  0
 37 40  1  0  0  0
 35 36  1  0  0  0
 36 25  1  0  0  0
 25 26  1  0  0  0
 25 29  1  0  0  0
 26 27  2  0  0  0
 26 28  1  0  0  0
 28  1  1  0  0  0
 28 30  1  0  0  0
  1  2  1  0  0  0
  1  6  2  0  0  0
  2  3  2  0  0  0
  3  4  1  0  0  0
  4  5  2  0  0  0
  5  7  1  0  0  0
  5  6  1  0  0  0
  7  8  2  0  0  0
  7 15  1  0  0  0
  8  9  1  0  0  0
  9 10  1  0  0  0
  9 13  1  0  0  0
 10 11  2  0  0  0
 11 12  1  0  0  0
 12 13  2  0  0  0
 13 14  1  0  0  0
 14 16  1  0  0  0
 14 15  2  0  0  0
 16 18  1  0  0  0
 16 17  1  0  0  0
 18 19  1  0  0  0
 19 20  1  0  0  0
 19 24  2  0  0  0
 20 21  2  0  0  0
 21 22  1  0  0  0
 22 23  2  0  0  0
 23 24  1  0  0  0
M  END
> <minimizedAffinity>
-9.80801

$$$$
