CHEMBL3339360


 46 50  0  0  0  0  0  0  0  0999 V2000
  -29.0762   -5.8016   -4.0805 C   0  0  0  0  0  0  0  0  0  0  0  0
  -27.9510   -4.9789   -4.1802 C   0  0  0  0  0  0  0  0  0  0  0  0
  -28.0751   -3.6355   -4.5582 C   0  0  0  0  0  0  0  0  0  0  0  0
  -29.3147   -3.1013   -4.9316 C   0  0  0  0  0  0  0  0  0  0  0  0
  -30.4493   -3.9175   -4.8148 C   0  0  0  0  0  0  0  0  0  0  0  0
  -30.3232   -5.2478   -4.3908 C   0  0  0  0  0  0  0  0  0  0  0  0
  -31.4328   -5.9975   -4.2991 F   0  0  0  0  0  0  0  0  0  0  0  0
  -29.0648   -7.1277   -3.6821 O   0  0  0  0  0  0  0  0  0  0  0  0
  -30.5593   -9.4220   -7.0408 C   0  0  0  0  0  0  0  0  0  0  0  0
  -30.0413   -8.5813   -6.0668 C   0  0  0  0  0  0  0  0  0  0  0  0
  -28.7703   -8.7809   -5.5000 C   0  0  0  0  0  0  0  0  0  0  0  0
  -28.3184   -8.0746   -4.3644 C   0  0  0  0  0  0  0  0  0  0  0  0
  -27.0128   -8.2522   -3.9204 C   0  0  0  0  0  0  0  0  0  0  0  0
  -26.2254   -9.1703   -4.5870 C   0  0  0  0  0  0  0  0  0  0  0  0
  -26.6561   -9.9250   -5.6228 N   0  0  0  0  0  0  0  0  0  0  0  0
  -27.9125   -9.7383   -6.0714 C   0  0  0  0  0  0  0  0  0  0  0  0
  -28.3833  -10.4834   -7.1494 C   0  0  0  0  0  0  0  0  0  0  0  0
  -29.6847  -10.3256   -7.6575 C   0  0  0  0  0  0  0  0  0  0  0  0
  -32.7901  -10.3268   -6.8680 C   0  0  0  0  0  0  0  0  0  0  0  0
  -31.8734   -9.3759   -7.4154 O   0  0  0  0  0  0  0  0  0  0  0  0
  -29.9566  -11.0890   -8.7723 O   0  0  0  0  0  0  0  0  0  0  0  0
  -29.1037  -12.2289   -8.9313 C   0  0  0  0  0  0  0  0  0  0  0  0
  -28.4650  -12.2685  -10.3134 C   0  0  0  0  0  0  0  0  0  0  0  0
  -27.3433  -11.2413  -10.4739 C   0  0  0  0  0  0  0  0  0  0  0  0
  -27.8538   -9.9227  -10.8957 N   0  0  0  0  0  0  0  0  0  0  0  0
  -29.0246  -10.0714  -11.7774 C   0  0  0  0  0  0  0  0  0  0  0  0
  -28.4461  -10.1793  -13.1742 C   0  0  0  0  0  0  0  0  0  0  0  0
  -27.2985   -9.1922  -13.1364 C   0  0  0  0  0  0  0  0  0  0  0  0
  -26.8701   -9.1481  -11.6755 C   0  0  0  0  0  0  0  0  0  0  0  0
  -29.3812   -1.7184   -5.5594 C   0  0  0  0  0  0  0  0  0  0  0  0
  -28.3092   -1.4184   -6.5910 C   0  0  0  0  0  0  0  0  0  0  0  0
  -27.5532   -0.4591   -6.4620 O   0  0  0  0  0  0  0  0  0  0  0  0
  -28.2964   -2.2964   -7.6856 N   0  0  0  0  0  0  0  0  0  0  0  0
  -28.9360   -3.0770   -7.7707 H   0  0  0  0  0  0  0  0  0  0  0  0
  -27.4070   -2.0178   -8.6741 N   0  0  0  0  0  0  0  0  0  0  0  0
  -27.7981   -2.0047   -9.9174 C   0  0  0  0  0  0  0  0  0  0  0  0
  -26.8148   -1.6737  -10.9786 C   0  0  0  0  0  0  0  0  0  0  0  0
  -25.5346   -1.2182  -10.6222 C   0  0  0  0  0  0  0  0  0  0  0  0
  -24.5973   -0.8913  -11.5997 C   0  0  0  0  0  0  0  0  0  0  0  0
  -24.9119   -1.0146  -12.9587 C   0  0  0  0  0  0  0  0  0  0  0  0
  -26.1940   -1.4770  -13.3129 C   0  0  0  0  0  0  0  0  0  0  0  0
  -27.1412   -1.8090  -12.3286 C   0  0  0  0  0  0  0  0  0  0  0  0
  -23.8973   -0.6652  -14.0255 C   0  0  0  0  0  0  0  0  0  0  0  0
  -22.7290   -1.3577  -13.9192 F   0  0  0  0  0  0  0  0  0  0  0  0
  -24.3616   -0.9066  -15.2832 F   0  0  0  0  0  0  0  0  0  0  0  0
  -23.5539    0.6525  -14.0018 F   0  0  0  0  0  0  0  0  0  0  0  0
 19 20  1  0  0  0
 20  9  1  0  0  0
  9 10  1  0  0  0
  9 18  2  0  0  0
 10 11  2  0  0  0
 11 12  1  0  0  0
 11 16  1  0  0  0
 12  8  1  0  0  0
 12 13  2  0  0  0
  8  1  1  0  0  0
  1  2  1  0  0  0
  1  6  2  0  0  0
  2  3  2  0  0  0
  3  4  1  0  0  0
  4 30  1  0  0  0
  4  5  2  0  0  0
 30 31  1  0  0  0
 31 32  2  0  0  0
 31 33  1  0  0  0
 33 35  1  0  0  0
 33 34  1  0  0  0
 35 36  2  0  0  0
 36 37  1  0  0  0
 37 38  1  0  0  0
 37 42  2  0  0  0
 38 39  2  0  0  0
 39 40  1  0  0  0
 40 43  1  0  0  0
 40 41  2  0  0  0
 43 44  1  0  0  0
 43 45  1  0  0  0
 43 46  1  0  0  0
 41 42  1  0  0  0
  5  6  1  0  0  0
  6  7  1  0  0  0
 13 14  1  0  0  0
 14 15  2  0  0  0
 15 16  1  0  0  0
 16 17  2  0  0  0
 17 18  1  0  0  0
 18 21  1  0  0  0
 21 22  1  0  0  0
 22 23  1  0  0  0
 23 24  1  0  0  0
 24 25  1  0  0  0
 25 26  1  0  0  0
 25 29  1  0  0  0
 26 27  1  0  0  0
 27 28  1  0  0  0
 28 29  1  0  0  0
M  END
> <minimizedAffinity>
-9.97806

$$$$
