CHEMBL1761940


 37 40  0  0  0  0  0  0  0  0999 V2000
  -23.0835   -0.9199  -13.6393 C   0  0  0  0  0  0  0  0  0  0  0  0
  -24.2740   -1.0202  -14.3525 C   0  0  0  0  0  0  0  0  0  0  0  0
  -25.4466   -1.3962  -13.7087 C   0  0  0  0  0  0  0  0  0  0  0  0
  -25.4543   -1.7533  -12.3555 C   0  0  0  0  0  0  0  0  0  0  0  0
  -24.2319   -1.7769  -11.6740 C   0  0  0  0  0  0  0  0  0  0  0  0
  -23.0481   -1.3602  -12.3126 C   0  0  0  0  0  0  0  0  0  0  0  0
  -26.6499   -2.0447  -11.6479 N   0  0  0  0  0  0  0  0  0  0  0  0
  -26.8164   -1.9409  -10.2742 C   0  0  0  0  0  0  0  0  0  0  0  0
  -25.9858   -1.4830   -9.4970 O   0  0  0  0  0  0  0  0  0  0  0  0
  -28.0271   -2.4707   -9.8386 N   0  0  0  0  0  0  0  0  0  0  0  0
  -27.4588   -2.3093  -12.1902 H   0  0  0  0  0  0  0  0  0  0  0  0
  -28.3294   -3.2926  -10.3403 H   0  0  0  0  0  0  0  0  0  0  0  0
  -28.3366   -2.4281   -8.4536 C   0  0  0  0  0  0  0  0  0  0  0  0
  -27.9714   -1.3280   -7.6681 C   0  0  0  0  0  0  0  0  0  0  0  0
  -28.1694   -1.3406   -6.2859 C   0  0  0  0  0  0  0  0  0  0  0  0
  -28.7355   -2.4588   -5.6633 C   0  0  0  0  0  0  0  0  0  0  0  0
  -29.1330   -3.5461   -6.4613 C   0  0  0  0  0  0  0  0  0  0  0  0
  -28.9572   -3.5228   -7.8517 C   0  0  0  0  0  0  0  0  0  0  0  0
  -28.9023   -2.5091   -4.1642 C   0  0  0  0  0  0  0  0  0  0  0  0
  -28.6547   -3.7370   -3.6252 F   0  0  0  0  0  0  0  0  0  0  0  0
  -28.0692   -1.6465   -3.5197 F   0  0  0  0  0  0  0  0  0  0  0  0
  -30.1623   -2.1773   -3.7664 F   0  0  0  0  0  0  0  0  0  0  0  0
  -21.9385   -0.4096  -14.2111 O   0  0  0  0  0  0  0  0  0  0  0  0
  -18.1384    2.8536  -15.0945 C   0  0  0  0  0  0  0  0  0  0  0  0
  -19.3344    3.5595  -14.8893 C   0  0  0  0  0  0  0  0  0  0  0  0
  -20.5341    2.9253  -14.6027 C   0  0  0  0  0  0  0  0  0  0  0  0
  -21.5892    3.6878  -14.3008 N   0  0  0  0  0  0  0  0  0  0  0  0
  -22.7048    3.0534  -13.9297 C   0  0  0  0  0  0  0  0  0  0  0  0
  -22.8605    1.7356  -13.8499 N   0  0  0  0  0  0  0  0  0  0  0  0
  -21.8048    0.9825  -14.2305 C   0  0  0  0  0  0  0  0  0  0  0  0
  -20.5704    1.5308  -14.6033 C   0  0  0  0  0  0  0  0  0  0  0  0
  -19.4100    0.8078  -14.9514 C   0  0  0  0  0  0  0  0  0  0  0  0
  -18.1856    1.4564  -15.1751 C   0  0  0  0  0  0  0  0  0  0  0  0
  -16.5116    3.7567  -16.5623 C   0  0  0  0  0  0  0  0  0  0  0  0
  -16.9443    3.5162  -15.2178 O   0  0  0  0  0  0  0  0  0  0  0  0
  -17.1825    0.5614  -15.4191 O   0  0  0  0  0  0  0  0  0  0  0  0
  -16.2088    0.2945  -14.4247 C   0  0  0  0  0  0  0  0  0  0  0  0
 34 35  1  0  0  0
 35 24  1  0  0  0
 24 25  1  0  0  0
 24 33  2  0  0  0
 25 26  2  0  0  0
 26 27  1  0  0  0
 26 31  1  0  0  0
 27 28  2  0  0  0
 28 29  1  0  0  0
 29 30  2  0  0  0
 30 23  1  0  0  0
 30 31  1  0  0  0
 23  1  1  0  0  0
  1  2  1  0  0  0
  1  6  2  0  0  0
  2  3  2  0  0  0
  3  4  1  0  0  0
  4  7  1  0  0  0
  4  5  2  0  0  0
  7  8  1  0  0  0
  7 11  1  0  0  0
  8  9  2  0  0  0
  8 10  1  0  0  0
 10 13  1  0  0  0
 10 12  1  0  0  0
 13 14  1  0  0  0
 13 18  2  0  0  0
 14 15  2  0  0  0
 15 16  1  0  0  0
 16 19  1  0  0  0
 16 17  2  0  0  0
 19 20  1  0  0  0
 19 21  1  0  0  0
 19 22  1  0  0  0
 17 18  1  0  0  0
  5  6  1  0  0  0
 31 32  2  0  0  0
 32 33  1  0  0  0
 33 36  1  0  0  0
 36 37  1  0  0  0
M  END
> <minimizedAffinity>
-11.78964

$$$$
