CHEMBL187609


 44 47  0  0  0  0  0  0  0  0999 V2000
  -26.1741  -10.7018   -4.3289 C   0  0  0  0  0  0  0  0  0  0  0  0
  -27.4159  -11.0292   -3.7927 C   0  0  0  0  0  0  0  0  0  0  0  0
  -28.3498  -10.0390   -3.4955 C   0  0  0  0  0  0  0  0  0  0  0  0
  -28.0782   -8.6852   -3.7137 C   0  0  0  0  0  0  0  0  0  0  0  0
  -26.8324   -8.3399   -4.2350 C   0  0  0  0  0  0  0  0  0  0  0  0
  -25.8966   -9.3404   -4.5432 C   0  0  0  0  0  0  0  0  0  0  0  0
  -29.0177   -7.6591   -3.4541 N   0  0  0  0  0  0  0  0  0  0  0  0
  -28.9694   -6.3963   -4.0069 C   0  0  0  0  0  0  0  0  0  0  0  0
  -28.1685   -6.0373   -4.8641 O   0  0  0  0  0  0  0  0  0  0  0  0
  -29.9083   -5.5309   -3.4584 N   0  0  0  0  0  0  0  0  0  0  0  0
  -29.8316   -7.8927   -2.9045 H   0  0  0  0  0  0  0  0  0  0  0  0
  -30.0451   -5.6484   -2.4647 H   0  0  0  0  0  0  0  0  0  0  0  0
  -29.9259   -4.2013   -3.9459 C   0  0  0  0  0  0  0  0  0  0  0  0
  -30.4647   -3.9190   -5.2073 C   0  0  0  0  0  0  0  0  0  0  0  0
  -30.2998   -2.6638   -5.7915 C   0  0  0  0  0  0  0  0  0  0  0  0
  -29.6441   -1.6584   -5.0910 C   0  0  0  0  0  0  0  0  0  0  0  0
  -29.1285   -1.9360   -3.8172 C   0  0  0  0  0  0  0  0  0  0  0  0
  -29.2885   -3.1949   -3.2287 C   0  0  0  0  0  0  0  0  0  0  0  0
  -29.3961   -0.3994   -5.5425 O   0  0  0  0  0  0  0  0  0  0  0  0
  -28.1456   -0.1044   -6.1476 C   0  0  0  0  0  0  0  0  0  0  0  0
  -27.1128   -0.0316   -5.2819 F   0  0  0  0  0  0  0  0  0  0  0  0
  -27.8651   -1.0896   -7.0303 F   0  0  0  0  0  0  0  0  0  0  0  0
  -28.2311    1.0581   -6.8295 F   0  0  0  0  0  0  0  0  0  0  0  0
  -24.3658  -12.1525   -3.5357 C   0  0  0  0  0  0  0  0  0  0  0  0
  -25.2219  -11.6857   -4.6326 N   0  0  0  0  0  0  0  0  0  0  0  0
  -24.6863  -11.9603   -5.9089 C   0  0  0  0  0  0  0  0  0  0  0  0
  -23.3313  -12.1050   -6.1191 C   0  0  0  0  0  0  0  0  0  0  0  0
  -22.9212  -12.3621   -7.4046 C   0  0  0  0  0  0  0  0  0  0  0  0
  -23.7586  -12.4624   -8.4482 N   0  0  0  0  0  0  0  0  0  0  0  0
  -25.0597  -12.3052   -8.1751 C   0  0  0  0  0  0  0  0  0  0  0  0
  -25.5394  -12.0718   -6.9402 N   0  0  0  0  0  0  0  0  0  0  0  0
  -25.9483  -12.3573   -9.2462 N   0  0  0  0  0  0  0  0  0  0  0  0
  -25.4135  -12.5038  -10.0929 H   0  0  0  0  0  0  0  0  0  0  0  0
  -27.0745  -11.5305   -9.4155 C   0  0  0  0  0  0  0  0  0  0  0  0
  -26.9141  -10.2567   -9.9639 C   0  0  0  0  0  0  0  0  0  0  0  0
  -28.0185   -9.4240  -10.1487 C   0  0  0  0  0  0  0  0  0  0  0  0
  -29.2948   -9.8463   -9.7664 C   0  0  0  0  0  0  0  0  0  0  0  0
  -29.4831  -11.1130   -9.2016 C   0  0  0  0  0  0  0  0  0  0  0  0
  -28.3607  -11.9335   -9.0202 C   0  0  0  0  0  0  0  0  0  0  0  0
  -30.8261  -11.5885   -8.7128 C   0  0  0  0  0  0  0  0  0  0  0  0
  -31.6176  -10.4383   -7.5955 S   0  0  0  0  0  0  0  0  0  0  0  0
  -32.6434  -11.4388   -6.5439 C   0  0  0  0  0  0  0  0  0  0  0  0
  -30.5707   -9.8856   -6.7516 O   0  0  0  0  0  0  0  0  0  0  0  0
  -32.4787   -9.5413   -8.3441 O   0  0  0  0  0  0  0  0  0  0  0  0
 24 25  1  0  0  0
 25  1  1  0  0  0
 25 26  1  0  0  0
  1  2  1  0  0  0
  1  6  2  0  0  0
  2  3  2  0  0  0
  3  4  1  0  0  0
  4  7  1  0  0  0
  4  5  2  0  0  0
  7  8  1  0  0  0
  7 11  1  0  0  0
  8  9  2  0  0  0
  8 10  1  0  0  0
 10 13  1  0  0  0
 10 12  1  0  0  0
 13 14  1  0  0  0
 13 18  2  0  0  0
 14 15  2  0  0  0
 15 16  1  0  0  0
 16 19  1  0  0  0
 16 17  2  0  0  0
 19 20  1  0  0  0
 20 21  1  0  0  0
 20 22  1  0  0  0
 20 23  1  0  0  0
 17 18  1  0  0  0
  5  6  1  0  0  0
 26 27  1  0  0  0
 26 31  2  0  0  0
 27 28  2  0  0  0
 28 29  1  0  0  0
 29 30  2  0  0  0
 30 32  1  0  0  0
 30 31  1  0  0  0
 32 34  1  0  0  0
 32 33  1  0  0  0
 34 35  1  0  0  0
 34 39  2  0  0  0
 35 36  2  0  0  0
 36 37  1  0  0  0
 37 38  2  0  0  0
 38 40  1  0  0  0
 38 39  1  0  0  0
 40 41  1  0  0  0
 41 42  1  0  0  0
 41 43  2  0  0  0
 41 44  2  0  0  0
M  END
> <minimizedAffinity>
-8.90018

$$$$
