CHEMBL3944307


 30 33  0  0  0  0  0  0  0  0999 V2000
  -16.2102    2.3325  -15.8796 C   0  0  0  0  0  0  0  0  0  0  0  0
  -16.1823    1.6453  -14.6560 C   0  0  0  0  0  0  0  0  0  0  0  0
  -17.3668    1.3450  -13.9473 C   0  0  0  0  0  0  0  0  0  0  0  0
  -18.5580    1.9504  -14.3774 C   0  0  0  0  0  0  0  0  0  0  0  0
  -19.9502    2.0229  -14.0254 C   0  0  0  0  0  0  0  0  0  0  0  0
  -20.2735    3.3312  -14.1311 N   0  0  0  0  0  0  0  0  0  0  0  0
  -19.5535    3.6862  -15.2167 N   0  0  0  0  0  0  0  0  0  0  0  0
  -18.4607    2.8837  -15.4067 C   0  0  0  0  0  0  0  0  0  0  0  0
  -17.3853    2.9637  -16.2895 C   0  0  0  0  0  0  0  0  0  0  0  0
  -19.7813    4.5497  -15.6873 H   0  0  0  0  0  0  0  0  0  0  0  0
  -21.0384    1.1674  -14.4902 C   0  0  0  0  0  0  0  0  0  0  0  0
  -22.2525    1.1367  -13.9014 C   0  0  0  0  0  0  0  0  0  0  0  0
  -22.9224   -0.1077  -13.4885 C   0  0  0  0  0  0  0  0  0  0  0  0
  -22.6735   -0.6671  -12.2185 C   0  0  0  0  0  0  0  0  0  0  0  0
  -23.4968   -1.6675  -11.6948 C   0  0  0  0  0  0  0  0  0  0  0  0
  -24.5814   -2.1316  -12.4321 C   0  0  0  0  0  0  0  0  0  0  0  0
  -24.8292   -1.5994  -13.6964 C   0  0  0  0  0  0  0  0  0  0  0  0
  -24.0052   -0.5952  -14.2149 C   0  0  0  0  0  0  0  0  0  0  0  0
  -15.1244    2.5815  -16.6996 O   0  0  0  0  0  0  0  0  0  0  0  0
  -12.2699    3.9624  -14.8774 C   0  0  0  0  0  0  0  0  0  0  0  0
  -11.3522    2.9175  -14.9952 C   0  0  0  0  0  0  0  0  0  0  0  0
  -11.6373    1.8031  -15.7798 C   0  0  0  0  0  0  0  0  0  0  0  0
  -12.8588    1.7107  -16.4322 C   0  0  0  0  0  0  0  0  0  0  0  0
  -13.8500    2.6603  -16.1898 C   0  0  0  0  0  0  0  0  0  0  0  0
  -13.5405    3.8096  -15.4476 C   0  0  0  0  0  0  0  0  0  0  0  0
  -11.1255    7.4013  -13.8137 C   0  0  0  0  0  0  0  0  0  0  0  0
  -11.3533    6.2766  -14.7860 C   0  0  0  0  0  0  0  0  0  0  0  0
  -11.0085    6.4014  -15.9573 O   0  0  0  0  0  0  0  0  0  0  0  0
  -11.9624    5.1692  -14.2095 N   0  0  0  0  0  0  0  0  0  0  0  0
  -12.3364    5.2709  -13.2723 H   0  0  0  0  0  0  0  0  0  0  0  0
 26 27  1  0  0  0
 27 28  2  0  0  0
 27 29  1  0  0  0
 29 20  1  0  0  0
 29 30  1  0  0  0
 20 21  1  0  0  0
 20 25  2  0  0  0
 21 22  2  0  0  0
 22 23  1  0  0  0
 23 24  2  0  0  0
 24 19  1  0  0  0
 24 25  1  0  0  0
 19  1  1  0  0  0
  1  2  1  0  0  0
  1  9  2  0  0  0
  2  3  2  0  0  0
  3  4  1  0  0  0
  4  5  1  0  0  0
  4  8  2  0  0  0
  5 11  1  0  0  0
  5  6  2  0  0  0
 11 12  2  0  0  0
 12 13  1  0  0  0
 13 14  1  0  0  0
 13 18  2  0  0  0
 14 15  2  0  0  0
 15 16  1  0  0  0
 16 17  2  0  0  0
 17 18  1  0  0  0
  6  7  1  0  0  0
  7  8  1  0  0  0
  7 10  1  0  0  0
  8  9  1  0  0  0
M  END
> <minimizedAffinity>
-9.82129

$$$$
