CHEMBL473557


 29 33  0  0  0  0  0  0  0  0999 V2000
  -27.4428   -8.0690   -4.4924 F   0  0  0  0  0  0  0  0  0  0  0  0
  -28.4279   -7.2770   -4.9466 C   0  0  0  0  0  0  0  0  0  0  0  0
  -28.2606   -5.8926   -4.8994 C   0  0  0  0  0  0  0  0  0  0  0  0
  -29.2677   -5.0421   -5.3787 C   0  0  0  0  0  0  0  0  0  0  0  0
  -30.4372   -5.6212   -5.8934 C   0  0  0  0  0  0  0  0  0  0  0  0
  -30.5955   -7.0084   -5.9314 C   0  0  0  0  0  0  0  0  0  0  0  0
  -29.6023   -7.8586   -5.4361 C   0  0  0  0  0  0  0  0  0  0  0  0
  -29.0834   -3.5840   -5.3168 C   0  0  0  0  0  0  0  0  0  0  0  0
  -30.0419   -2.7055   -5.5285 N   0  0  0  0  0  0  0  0  0  0  0  0
  -29.5495   -1.4171   -5.3945 C   0  0  0  0  0  0  0  0  0  0  0  0
  -30.2837   -0.2270   -5.5706 C   0  0  0  0  0  0  0  0  0  0  0  0
  -29.6567    1.0096   -5.3852 C   0  0  0  0  0  0  0  0  0  0  0  0
  -28.3126    1.0746   -5.0318 C   0  0  0  0  0  0  0  0  0  0  0  0
  -27.5601   -0.0913   -4.8608 C   0  0  0  0  0  0  0  0  0  0  0  0
  -28.2020   -1.3256   -5.0466 C   0  0  0  0  0  0  0  0  0  0  0  0
  -27.5545   -2.9071   -4.9023 S   0  0  0  0  0  0  0  0  0  0  0  0
  -29.7567   -9.2638   -5.4756 N   0  0  0  0  0  0  0  0  0  0  0  0
  -30.2424   -9.6090   -4.6510 H   0  0  0  0  0  0  0  0  0  0  0  0
  -30.1512  -10.0009   -6.6222 C   0  0  0  0  0  0  0  0  0  0  0  0
  -31.2580  -10.7648   -6.5424 N   0  0  0  0  0  0  0  0  0  0  0  0
  -31.6137  -11.4371   -7.6371 C   0  0  0  0  0  0  0  0  0  0  0  0
  -30.9817  -11.4102   -8.8145 N   0  0  0  0  0  0  0  0  0  0  0  0
  -29.8874  -10.6486   -8.8909 C   0  0  0  0  0  0  0  0  0  0  0  0
  -29.2179  -10.5852  -10.1035 C   0  0  0  0  0  0  0  0  0  0  0  0
  -28.0639   -9.8192  -10.2540 C   0  0  0  0  0  0  0  0  0  0  0  0
  -27.2566   -9.7803  -11.7725 Cl  0  0  0  0  0  0  0  0  0  0  0  0
  -27.5608   -9.0863   -9.1870 C   0  0  0  0  0  0  0  0  0  0  0  0
  -28.2268   -9.1227   -7.9643 C   0  0  0  0  0  0  0  0  0  0  0  0
  -29.3943   -9.9101   -7.8027 C   0  0  0  0  0  0  0  0  0  0  0  0
  1  2  1  0  0  0
  2  3  1  0  0  0
  2  7  2  0  0  0
  3  4  2  0  0  0
  4  8  1  0  0  0
  4  5  1  0  0  0
  8  9  2  0  0  0
  8 16  1  0  0  0
  9 10  1  0  0  0
 10 11  1  0  0  0
 10 15  2  0  0  0
 11 12  2  0  0  0
 12 13  1  0  0  0
 13 14  2  0  0  0
 14 15  1  0  0  0
 15 16  1  0  0  0
  5  6  2  0  0  0
  6  7  1  0  0  0
  7 17  1  0  0  0
 17 19  1  0  0  0
 17 18  1  0  0  0
 19 20  1  0  0  0
 19 29  2  0  0  0
 20 21  2  0  0  0
 21 22  1  0  0  0
 22 23  2  0  0  0
 23 24  1  0  0  0
 23 29  1  0  0  0
 24 25  2  0  0  0
 25 26  1  0  0  0
 25 27  1  0  0  0
 27 28  2  0  0  0
 28 29  1  0  0  0
M  END
> <minimizedAffinity>
-9.10552

$$$$
