CHEMBL2022850


 41 45  0  0  0  0  0  0  0  0999 V2000
  -22.4989   -0.1118  -13.7773 C   0  0  0  0  0  0  0  0  0  0  0  0
  -22.6792   -0.1079  -12.3984 C   0  0  0  0  0  0  0  0  0  0  0  0
  -23.8611   -0.5715  -11.8279 C   0  0  0  0  0  0  0  0  0  0  0  0
  -24.9570   -0.9151  -12.6184 C   0  0  0  0  0  0  0  0  0  0  0  0
  -24.8221   -0.8545  -14.0059 C   0  0  0  0  0  0  0  0  0  0  0  0
  -23.5975   -0.4697  -14.5799 C   0  0  0  0  0  0  0  0  0  0  0  0
  -18.5667    2.6365  -15.4971 C   0  0  0  0  0  0  0  0  0  0  0  0
  -19.1520    3.8527  -15.1903 C   0  0  0  0  0  0  0  0  0  0  0  0
  -20.3535    4.0024  -14.6158 N   0  0  0  0  0  0  0  0  0  0  0  0
  -21.0831    2.9191  -14.2858 C   0  0  0  0  0  0  0  0  0  0  0  0
  -22.2753    3.2464  -13.6569 N   0  0  0  0  0  0  0  0  0  0  0  0
  -20.6105    1.6005  -14.5703 C   0  0  0  0  0  0  0  0  0  0  0  0
  -21.1979    0.2620  -14.3504 C   0  0  0  0  0  0  0  0  0  0  0  0
  -20.3660   -0.7392  -14.8054 C   0  0  0  0  0  0  0  0  0  0  0  0
  -18.9359   -0.1600  -15.4848 S   0  0  0  0  0  0  0  0  0  0  0  0
  -19.3400    1.4945  -15.1818 C   0  0  0  0  0  0  0  0  0  0  0  0
  -22.2792    4.2359  -13.4338 H   0  0  0  0  0  0  0  0  0  0  0  0
  -22.5362    2.6287  -12.9003 H   0  0  0  0  0  0  0  0  0  0  0  0
  -14.3680    3.8842  -17.8243 C   0  0  0  0  0  0  0  0  0  0  0  0
  -15.3955    3.1504  -17.1273 N   0  0  0  0  0  0  0  0  0  0  0  0
  -16.5878    3.6325  -16.6705 C   0  0  0  0  0  0  0  0  0  0  0  0
  -17.2513    2.5608  -16.1019 C   0  0  0  0  0  0  0  0  0  0  0  0
  -16.3357    1.4923  -16.2432 C   0  0  0  0  0  0  0  0  0  0  0  0
  -15.2118    1.8466  -16.8677 N   0  0  0  0  0  0  0  0  0  0  0  0
  -26.1865   -1.3251  -12.0543 N   0  0  0  0  0  0  0  0  0  0  0  0
  -26.3803   -1.5394  -10.7005 C   0  0  0  0  0  0  0  0  0  0  0  0
  -25.5684   -1.2662   -9.8234 O   0  0  0  0  0  0  0  0  0  0  0  0
  -27.6058   -2.1307  -10.4389 N   0  0  0  0  0  0  0  0  0  0  0  0
  -27.0213   -1.1992  -12.6078 H   0  0  0  0  0  0  0  0  0  0  0  0
  -27.9030   -2.8015  -11.1341 H   0  0  0  0  0  0  0  0  0  0  0  0
  -28.0245   -2.3617   -9.1076 C   0  0  0  0  0  0  0  0  0  0  0  0
  -28.7240   -3.5232   -8.7558 C   0  0  0  0  0  0  0  0  0  0  0  0
  -29.1595   -3.7215   -7.4458 C   0  0  0  0  0  0  0  0  0  0  0  0
  -28.9193   -2.7469   -6.4802 C   0  0  0  0  0  0  0  0  0  0  0  0
  -28.2346   -1.5744   -6.8301 C   0  0  0  0  0  0  0  0  0  0  0  0
  -27.7530   -1.4004   -8.1358 C   0  0  0  0  0  0  0  0  0  0  0  0
  -28.0175   -0.4820   -5.8500 C   0  0  0  0  0  0  0  0  0  0  0  0
  -27.9721    0.7985   -6.3237 N   0  0  0  0  0  0  0  0  0  0  0  0
  -27.8387   -0.7190   -4.6550 O   0  0  0  0  0  0  0  0  0  0  0  0
  -27.8558    1.0070   -7.3038 H   0  0  0  0  0  0  0  0  0  0  0  0
  -27.6980    1.5104   -5.6590 H   0  0  0  0  0  0  0  0  0  0  0  0
 19 20  1  0  0  0
 20 21  1  0  0  0
 20 24  1  0  0  0
 21 22  2  0  0  0
 22  7  1  0  0  0
 22 23  1  0  0  0
  7  8  1  0  0  0
  7 16  2  0  0  0
  8  9  2  0  0  0
  9 10  1  0  0  0
 10 11  1  0  0  0
 10 12  2  0  0  0
 11 17  1  0  0  0
 11 18  1  0  0  0
 12 13  1  0  0  0
 12 16  1  0  0  0
 13  1  1  0  0  0
 13 14  2  0  0  0
  1  2  1  0  0  0
  1  6  2  0  0  0
  2  3  2  0  0  0
  3  4  1  0  0  0
  4 25  1  0  0  0
  4  5  2  0  0  0
 25 26  1  0  0  0
 25 29  1  0  0  0
 26 27  2  0  0  0
 26 28  1  0  0  0
 28 31  1  0  0  0
 28 30  1  0  0  0
 31 32  1  0  0  0
 31 36  2  0  0  0
 32 33  2  0  0  0
 33 34  1  0  0  0
 34 35  2  0  0  0
 35 37  1  0  0  0
 35 36  1  0  0  0
 37 38  1  0  0  0
 37 39  2  0  0  0
 38 40  1  0  0  0
 38 41  1  0  0  0
  5  6  1  0  0  0
 14 15  1  0  0  0
 15 16  1  0  0  0
 23 24  2  0  0  0
M  END
> <minimizedAffinity>
-9.75249

$$$$
