CHEMBL2409775


 34 38  0  0  0  0  0  0  0  0999 V2000
  -14.6955    0.0207  -13.5084 C   0  0  0  0  0  0  0  0  0  0  0  0
  -13.6019    0.8887  -13.6415 C   0  0  0  0  0  0  0  0  0  0  0  0
  -13.6619    2.0105  -14.4622 C   0  0  0  0  0  0  0  0  0  0  0  0
  -14.8025    2.2543  -15.2100 C   0  0  0  0  0  0  0  0  0  0  0  0
  -15.8373    1.3158  -15.2232 C   0  0  0  0  0  0  0  0  0  0  0  0
  -15.8023    0.2184  -14.3444 C   0  0  0  0  0  0  0  0  0  0  0  0
  -14.3372   -2.3485  -12.8340 C   0  0  0  0  0  0  0  0  0  0  0  0
  -13.9032   -2.6865  -13.9347 O   0  0  0  0  0  0  0  0  0  0  0  0
  -14.7066   -1.0379  -12.5524 N   0  0  0  0  0  0  0  0  0  0  0  0
  -14.8462   -0.7830  -11.5854 H   0  0  0  0  0  0  0  0  0  0  0  0
  -13.8459   -5.2673   -8.6779 C   0  0  0  0  0  0  0  0  0  0  0  0
  -14.2563   -4.6176   -9.9436 C   0  0  0  0  0  0  0  0  0  0  0  0
  -13.6828   -3.5130  -10.6157 C   0  0  0  0  0  0  0  0  0  0  0  0
  -14.4439   -3.3194  -11.7600 C   0  0  0  0  0  0  0  0  0  0  0  0
  -15.4202   -4.2976  -11.6900 N   0  0  0  0  0  0  0  0  0  0  0  0
  -16.5222   -4.5938  -12.5782 C   0  0  0  0  0  0  0  0  0  0  0  0
  -15.3138   -5.0881  -10.6032 N   0  0  0  0  0  0  0  0  0  0  0  0
  -16.9424    1.4323  -16.0432 O   0  0  0  0  0  0  0  0  0  0  0  0
  -18.1970    1.7316  -15.5152 C   0  0  0  0  0  0  0  0  0  0  0  0
  -18.5801    3.1151  -15.2172 C   0  0  0  0  0  0  0  0  0  0  0  0
  -19.7660    3.4171  -14.6524 C   0  0  0  0  0  0  0  0  0  0  0  0
  -20.7102    2.3835  -14.4104 C   0  0  0  0  0  0  0  0  0  0  0  0
  -21.9281    2.3910  -13.9138 N   0  0  0  0  0  0  0  0  0  0  0  0
  -22.2783    1.0698  -13.9407 C   0  0  0  0  0  0  0  0  0  0  0  0
  -21.3666    0.2559  -14.4656 N   0  0  0  0  0  0  0  0  0  0  0  0
  -20.3478    1.0828  -14.7645 N   0  0  0  0  0  0  0  0  0  0  0  0
  -19.1087    0.7649  -15.3148 C   0  0  0  0  0  0  0  0  0  0  0  0
  -23.4995    0.7218  -13.4336 N   0  0  0  0  0  0  0  0  0  0  0  0
  -23.6760   -0.1323  -12.3763 C   0  0  0  0  0  0  0  0  0  0  0  0
  -22.8148   -0.7039  -11.7240 O   0  0  0  0  0  0  0  0  0  0  0  0
  -24.2762    1.2198  -13.8375 H   0  0  0  0  0  0  0  0  0  0  0  0
  -25.1126   -0.2881  -11.9843 C   0  0  0  0  0  0  0  0  0  0  0  0
  -25.5268   -1.5181  -11.2076 C   0  0  0  0  0  0  0  0  0  0  0  0
  -25.9733   -1.3527  -12.6302 C   0  0  0  0  0  0  0  0  0  0  0  0
 11 12  1  0  0  0
 12 13  1  0  0  0
 12 17  2  0  0  0
 13 14  2  0  0  0
 14  7  1  0  0  0
 14 15  1  0  0  0
  7  8  2  0  0  0
  7  9  1  0  0  0
  9  1  1  0  0  0
  9 10  1  0  0  0
  1  2  1  0  0  0
  1  6  2  0  0  0
  2  3  2  0  0  0
  3  4  1  0  0  0
  4  5  2  0  0  0
  5 18  1  0  0  0
  5  6  1  0  0  0
 18 19  1  0  0  0
 19 20  1  0  0  0
 19 27  2  0  0  0
 20 21  2  0  0  0
 21 22  1  0  0  0
 22 23  2  0  0  0
 22 26  1  0  0  0
 23 24  1  0  0  0
 24 28  1  0  0  0
 24 25  2  0  0  0
 28 29  1  0  0  0
 28 31  1  0  0  0
 29 30  2  0  0  0
 29 32  1  0  0  0
 32 33  1  0  0  0
 32 34  1  0  0  0
 33 34  1  0  0  0
 25 26  1  0  0  0
 26 27  1  0  0  0
 15 16  1  0  0  0
 15 17  1  0  0  0
M  END
> <minimizedAffinity>
-9.20302

$$$$
