CHEMBL1681946


 33 35  0  0  0  0  0  0  0  0999 V2000
  -29.2138   -8.2325   -5.1336 C   0  0  0  0  0  0  0  0  0  0  0  0
  -28.0325   -7.5120   -5.2830 C   0  0  0  0  0  0  0  0  0  0  0  0
  -27.9796   -6.1639   -4.9348 C   0  0  0  0  0  0  0  0  0  0  0  0
  -29.1073   -5.4880   -4.4610 C   0  0  0  0  0  0  0  0  0  0  0  0
  -30.3224   -6.1925   -4.4251 C   0  0  0  0  0  0  0  0  0  0  0  0
  -31.7831   -5.4117   -3.9187 Cl  0  0  0  0  0  0  0  0  0  0  0  0
  -30.3790   -7.5603   -4.7569 C   0  0  0  0  0  0  0  0  0  0  0  0
  -29.0312   -4.1417   -3.9992 N   0  0  0  0  0  0  0  0  0  0  0  0
  -29.1942   -3.0253   -4.8049 C   0  0  0  0  0  0  0  0  0  0  0  0
  -29.4357   -3.0718   -6.0085 O   0  0  0  0  0  0  0  0  0  0  0  0
  -28.9883   -1.8262   -4.1360 N   0  0  0  0  0  0  0  0  0  0  0  0
  -28.7043   -4.0047   -3.0483 H   0  0  0  0  0  0  0  0  0  0  0  0
  -28.2879   -1.8579   -3.4111 H   0  0  0  0  0  0  0  0  0  0  0  0
  -29.0711   -0.6099   -4.8713 C   0  0  0  0  0  0  0  0  0  0  0  0
  -30.2973    0.0363   -5.0674 C   0  0  0  0  0  0  0  0  0  0  0  0
  -30.3887    1.1434   -5.9136 C   0  0  0  0  0  0  0  0  0  0  0  0
  -29.2507    1.6086   -6.5649 C   0  0  0  0  0  0  0  0  0  0  0  0
  -28.0183    0.9948   -6.3378 C   0  0  0  0  0  0  0  0  0  0  0  0
  -27.9189   -0.0975   -5.4666 C   0  0  0  0  0  0  0  0  0  0  0  0
  -29.2610   -9.5954   -5.3753 O   0  0  0  0  0  0  0  0  0  0  0  0
  -29.6226   -9.9564   -7.7254 C   0  0  0  0  0  0  0  0  0  0  0  0
  -29.0751  -10.4120   -8.9212 C   0  0  0  0  0  0  0  0  0  0  0  0
  -29.7415  -10.3185  -10.1423 N   0  0  0  0  0  0  0  0  0  0  0  0
  -27.8157  -10.8689   -9.0183 N   0  0  0  0  0  0  0  0  0  0  0  0
  -27.1017  -10.8972   -7.8902 C   0  0  0  0  0  0  0  0  0  0  0  0
  -27.5357  -10.5212   -6.6854 N   0  0  0  0  0  0  0  0  0  0  0  0
  -28.7918  -10.0207   -6.6232 C   0  0  0  0  0  0  0  0  0  0  0  0
  -30.7246  -10.5785  -10.0552 H   0  0  0  0  0  0  0  0  0  0  0  0
  -29.2298  -10.8299  -10.8531 H   0  0  0  0  0  0  0  0  0  0  0  0
  -31.9751  -10.1271   -8.1947 N   0  0  0  0  0  0  0  0  0  0  0  0
  -31.0059   -9.4619   -7.6462 C   0  0  0  0  0  0  0  0  0  0  0  0
  -32.9462   -8.3512   -7.1401 C   0  0  0  0  0  0  0  0  0  0  0  0
  -33.1890   -9.4561   -8.0086 O   0  0  0  0  0  0  0  0  0  0  0  0
 32 33  1  0  0  0
 33 30  1  0  0  0
 30 31  2  0  0  0
 31 21  1  0  0  0
 21 22  1  0  0  0
 21 27  2  0  0  0
 22 23  1  0  0  0
 22 24  2  0  0  0
 23 28  1  0  0  0
 23 29  1  0  0  0
 24 25  1  0  0  0
 25 26  2  0  0  0
 26 27  1  0  0  0
 27 20  1  0  0  0
 20  1  1  0  0  0
  1  2  1  0  0  0
  1  7  2  0  0  0
  2  3  2  0  0  0
  3  4  1  0  0  0
  4  8  1  0  0  0
  4  5  2  0  0  0
  8  9  1  0  0  0
  8 12  1  0  0  0
  9 10  2  0  0  0
  9 11  1  0  0  0
 11 14  1  0  0  0
 11 13  1  0  0  0
 14 15  1  0  0  0
 14 19  2  0  0  0
 15 16  2  0  0  0
 16 17  1  0  0  0
 17 18  2  0  0  0
 18 19  1  0  0  0
  5  6  1  0  0  0
  5  7  1  0  0  0
M  END
> <minimizedAffinity>
-8.12947

$$$$
