CHEMBL1988437


 30 33  0  0  0  0  0  0  0  0999 V2000
  -28.9353   -7.3253   -5.7085 C   0  0  0  0  0  0  0  0  0  0  0  0
  -29.6638   -7.3491   -6.9097 C   0  0  0  0  0  0  0  0  0  0  0  0
  -29.7388   -6.2144   -7.7501 C   0  0  0  0  0  0  0  0  0  0  0  0
  -29.1795   -5.0097   -7.2846 C   0  0  0  0  0  0  0  0  0  0  0  0
  -28.9557   -3.6534   -7.7111 C   0  0  0  0  0  0  0  0  0  0  0  0
  -29.2840   -2.9000   -6.6366 N   0  0  0  0  0  0  0  0  0  0  0  0
  -28.7754   -3.6541   -5.6451 N   0  0  0  0  0  0  0  0  0  0  0  0
  -28.7226   -4.9811   -5.9696 C   0  0  0  0  0  0  0  0  0  0  0  0
  -28.4279   -6.1175   -5.2216 C   0  0  0  0  0  0  0  0  0  0  0  0
  -28.5938   -3.2233   -4.7487 H   0  0  0  0  0  0  0  0  0  0  0  0
  -27.7717   -3.1263   -8.3942 C   0  0  0  0  0  0  0  0  0  0  0  0
  -27.6815   -1.8792   -8.9009 C   0  0  0  0  0  0  0  0  0  0  0  0
  -27.0830   -1.6138  -10.2318 C   0  0  0  0  0  0  0  0  0  0  0  0
  -27.8665   -1.7100  -11.3789 C   0  0  0  0  0  0  0  0  0  0  0  0
  -27.2442   -1.7233  -12.6301 C   0  0  0  0  0  0  0  0  0  0  0  0
  -25.8595   -1.6498  -12.7076 C   0  0  0  0  0  0  0  0  0  0  0  0
  -25.1530   -1.5449  -11.5237 C   0  0  0  0  0  0  0  0  0  0  0  0
  -25.7307   -1.5178  -10.2991 N   0  0  0  0  0  0  0  0  0  0  0  0
  -28.8228   -8.7474   -4.6289 S   0  0  0  0  0  0  0  0  0  0  0  0
  -26.5980   -9.8588   -6.0364 C   0  0  0  0  0  0  0  0  0  0  0  0
  -25.2365  -10.2237   -6.0677 C   0  0  0  0  0  0  0  0  0  0  0  0
  -24.3995   -9.9832   -4.9777 C   0  0  0  0  0  0  0  0  0  0  0  0
  -24.9159   -9.3737   -3.8371 C   0  0  0  0  0  0  0  0  0  0  0  0
  -26.2683   -9.0305   -3.7815 C   0  0  0  0  0  0  0  0  0  0  0  0
  -27.1306   -9.2825   -4.8648 C   0  0  0  0  0  0  0  0  0  0  0  0
  -27.5606   -9.5102   -9.6913 C   0  0  0  0  0  0  0  0  0  0  0  0
  -26.9973   -9.3016   -8.3824 N   0  0  0  0  0  0  0  0  0  0  0  0
  -27.3475  -10.0922   -7.3075 C   0  0  0  0  0  0  0  0  0  0  0  0
  -28.1628  -11.0073   -7.3895 O   0  0  0  0  0  0  0  0  0  0  0  0
  -26.2562   -8.6177   -8.2742 H   0  0  0  0  0  0  0  0  0  0  0  0
 26 27  1  0  0  0
 27 28  1  0  0  0
 27 30  1  0  0  0
 28 29  2  0  0  0
 28 20  1  0  0  0
 20 21  1  0  0  0
 20 25  2  0  0  0
 21 22  2  0  0  0
 22 23  1  0  0  0
 23 24  2  0  0  0
 24 25  1  0  0  0
 25 19  1  0  0  0
 19  1  1  0  0  0
  1  2  1  0  0  0
  1  9  2  0  0  0
  2  3  2  0  0  0
  3  4  1  0  0  0
  4  5  1  0  0  0
  4  8  2  0  0  0
  5 11  1  0  0  0
  5  6  2  0  0  0
 11 12  2  0  0  0
 12 13  1  0  0  0
 13 14  1  0  0  0
 13 18  2  0  0  0
 14 15  2  0  0  0
 15 16  1  0  0  0
 16 17  2  0  0  0
 17 18  1  0  0  0
  6  7  1  0  0  0
  7  8  1  0  0  0
  7 10  1  0  0  0
  8  9  1  0  0  0
M  END
> <minimizedAffinity>
-8.55661

$$$$
