CHEMBL1093099


 27 30  0  0  0  0  0  0  0  0999 V2000
  -12.3861  -10.5204  -12.5336 N   0  0  0  0  0  0  0  0  0  0  0  0
  -12.7157   -9.1987  -12.3063 C   0  0  0  0  0  0  0  0  0  0  0  0
  -11.7150   -8.3827  -11.9594 N   0  0  0  0  0  0  0  0  0  0  0  0
  -11.9585   -7.0684  -11.7527 C   0  0  0  0  0  0  0  0  0  0  0  0
  -10.8496   -6.3019  -11.4555 N   0  0  0  0  0  0  0  0  0  0  0  0
  -13.2779   -6.5916  -11.8651 C   0  0  0  0  0  0  0  0  0  0  0  0
  -14.2118   -7.5606  -12.1997 C   0  0  0  0  0  0  0  0  0  0  0  0
  -14.0006   -8.8640  -12.4183 N   0  0  0  0  0  0  0  0  0  0  0  0
  -15.4353   -6.9758  -12.2944 N   0  0  0  0  0  0  0  0  0  0  0  0
  -15.3457   -5.6297  -12.0419 C   0  0  0  0  0  0  0  0  0  0  0  0
  -16.3626   -4.6656  -12.0674 C   0  0  0  0  0  0  0  0  0  0  0  0
  -16.0228   -3.3485  -11.7728 C   0  0  0  0  0  0  0  0  0  0  0  0
  -14.7167   -3.0159  -11.4369 C   0  0  0  0  0  0  0  0  0  0  0  0
  -13.7046   -3.9923  -11.3961 C   0  0  0  0  0  0  0  0  0  0  0  0
  -14.0030   -5.3423  -11.7371 C   0  0  0  0  0  0  0  0  0  0  0  0
  -11.5231  -10.7401  -12.0566 H   0  0  0  0  0  0  0  0  0  0  0  0
  -13.1846  -11.1145  -12.3651 H   0  0  0  0  0  0  0  0  0  0  0  0
  -10.0662   -6.8545  -11.1318 H   0  0  0  0  0  0  0  0  0  0  0  0
  -11.0204   -5.4152  -11.0012 H   0  0  0  0  0  0  0  0  0  0  0  0
  -16.2765   -7.4756  -12.5383 H   0  0  0  0  0  0  0  0  0  0  0  0
  -12.0682   -3.4899  -10.9333 S   0  0  0  0  0  0  0  0  0  0  0  0
  -11.9765   -3.8521   -9.1839 C   0  0  0  0  0  0  0  0  0  0  0  0
  -12.4527   -5.0342   -8.6057 C   0  0  0  0  0  0  0  0  0  0  0  0
  -12.3185   -5.2606   -7.2328 C   0  0  0  0  0  0  0  0  0  0  0  0
  -11.6969   -4.3119   -6.4251 C   0  0  0  0  0  0  0  0  0  0  0  0
  -11.2004   -3.1406   -6.9902 C   0  0  0  0  0  0  0  0  0  0  0  0
  -11.3366   -2.9144   -8.3624 C   0  0  0  0  0  0  0  0  0  0  0  0
  1  2  1  0  0  0
  1 16  1  0  0  0
  1 17  1  0  0  0
  2  3  1  0  0  0
  2  8  2  0  0  0
  3  4  2  0  0  0
  4  5  1  0  0  0
  4  6  1  0  0  0
  5 18  1  0  0  0
  5 19  1  0  0  0
  6  7  2  0  0  0
  6 15  1  0  0  0
  7  8  1  0  0  0
  7  9  1  0  0  0
  9 10  1  0  0  0
  9 20  1  0  0  0
 10 11  1  0  0  0
 10 15  2  0  0  0
 11 12  2  0  0  0
 12 13  1  0  0  0
 13 14  2  0  0  0
 14 21  1  0  0  0
 14 15  1  0  0  0
 21 22  1  0  0  0
 22 23  1  0  0  0
 22 27  2  0  0  0
 23 24  2  0  0  0
 24 25  1  0  0  0
 25 26  2  0  0  0
 26 27  1  0  0  0
M  END
> <minimizedAffinity>
-7.36217

$$$$
