CHEMBL2023230


 38 42  0  0  0  0  0  0  0  0999 V2000
  -21.0424    0.9823  -13.8003 C   0  0  0  0  0  0  0  0  0  0  0  0
  -20.3228    0.2220  -14.7271 C   0  0  0  0  0  0  0  0  0  0  0  0
  -19.1702    0.7058  -15.3333 C   0  0  0  0  0  0  0  0  0  0  0  0
  -18.7682    2.0251  -15.1402 C   0  0  0  0  0  0  0  0  0  0  0  0
  -19.6119    2.8527  -14.3879 C   0  0  0  0  0  0  0  0  0  0  0  0
  -20.7062    2.3288  -13.6723 C   0  0  0  0  0  0  0  0  0  0  0  0
  -17.4874    2.4828  -15.6979 C   0  0  0  0  0  0  0  0  0  0  0  0
  -17.4714    3.6221  -16.4792 C   0  0  0  0  0  0  0  0  0  0  0  0
  -15.9554    3.9771  -17.1170 S   0  0  0  0  0  0  0  0  0  0  0  0
  -15.2010    2.6493  -16.3073 C   0  0  0  0  0  0  0  0  0  0  0  0
  -13.8330    2.2998  -16.3166 C   0  0  0  0  0  0  0  0  0  0  0  0
  -13.5112    1.1375  -15.6533 C   0  0  0  0  0  0  0  0  0  0  0  0
  -14.3896    0.3347  -15.0318 N   0  0  0  0  0  0  0  0  0  0  0  0
  -15.6950    0.6628  -15.0085 C   0  0  0  0  0  0  0  0  0  0  0  0
  -16.4904   -0.2793  -14.3704 N   0  0  0  0  0  0  0  0  0  0  0  0
  -16.1566    1.8648  -15.6234 C   0  0  0  0  0  0  0  0  0  0  0  0
  -15.9546   -1.1245  -14.2093 H   0  0  0  0  0  0  0  0  0  0  0  0
  -17.3919   -0.4162  -14.8097 H   0  0  0  0  0  0  0  0  0  0  0  0
  -12.8246    3.1185  -16.9732 C   0  0  0  0  0  0  0  0  0  0  0  0
  -12.1592    2.9859  -18.2148 C   0  0  0  0  0  0  0  0  0  0  0  0
  -11.3139    3.9884  -18.4634 N   0  0  0  0  0  0  0  0  0  0  0  0
  -11.4433    4.7783  -17.3856 N   0  0  0  0  0  0  0  0  0  0  0  0
  -10.6968    6.0100  -17.3007 C   0  0  0  0  0  0  0  0  0  0  0  0
  -12.3345    4.3062  -16.4667 C   0  0  0  0  0  0  0  0  0  0  0  0
  -24.1818   -0.5043  -12.5965 N   0  0  0  0  0  0  0  0  0  0  0  0
  -23.2750    0.0095  -13.5068 C   0  0  0  0  0  0  0  0  0  0  0  0
  -23.5229    0.0959  -14.7057 O   0  0  0  0  0  0  0  0  0  0  0  0
  -22.0546    0.4022  -12.9770 N   0  0  0  0  0  0  0  0  0  0  0  0
  -24.0793   -0.2820  -11.6146 H   0  0  0  0  0  0  0  0  0  0  0  0
  -21.7589   -0.0352  -12.1168 H   0  0  0  0  0  0  0  0  0  0  0  0
  -26.3688   -1.5258  -12.0331 C   0  0  0  0  0  0  0  0  0  0  0  0
  -27.5817   -2.0975  -12.4690 C   0  0  0  0  0  0  0  0  0  0  0  0
  -27.8918   -2.2055  -13.8232 C   0  0  0  0  0  0  0  0  0  0  0  0
  -26.9986   -1.7395  -14.7661 C   0  0  0  0  0  0  0  0  0  0  0  0
  -25.7855   -1.2002  -14.3495 C   0  0  0  0  0  0  0  0  0  0  0  0
  -25.4418   -1.0671  -12.9903 C   0  0  0  0  0  0  0  0  0  0  0  0
  -27.0633   -1.7952   -9.7838 C   0  0  0  0  0  0  0  0  0  0  0  0
  -26.0545   -1.3630  -10.7017 O   0  0  0  0  0  0  0  0  0  0  0  0
 37 38  1  0  0  0
 38 31  1  0  0  0
 31 32  1  0  0  0
 31 36  2  0  0  0
 32 33  2  0  0  0
 33 34  1  0  0  0
 34 35  2  0  0  0
 35 36  1  0  0  0
 36 25  1  0  0  0
 25 26  1  0  0  0
 25 29  1  0  0  0
 26 27  2  0  0  0
 26 28  1  0  0  0
 28  1  1  0  0  0
 28 30  1  0  0  0
  1  2  1  0  0  0
  1  6  2  0  0  0
  2  3  2  0  0  0
  3  4  1  0  0  0
  4  7  1  0  0  0
  4  5  2  0  0  0
  7  8  2  0  0  0
  7 16  1  0  0  0
  8  9  1  0  0  0
  9 10  1  0  0  0
 10 11  1  0  0  0
 10 16  2  0  0  0
 11 19  1  0  0  0
 11 12  2  0  0  0
 19 20  1  0  0  0
 19 24  2  0  0  0
 20 21  2  0  0  0
 21 22  1  0  0  0
 22 23  1  0  0  0
 22 24  1  0  0  0
 12 13  1  0  0  0
 13 14  2  0  0  0
 14 15  1  0  0  0
 14 16  1  0  0  0
 15 17  1  0  0  0
 15 18  1  0  0  0
  5  6  1  0  0  0
M  END
> <minimizedAffinity>
-8.60522

$$$$
