CHEMBL3656107


 46 50  0  0  0  0  0  0  0  0999 V2000
  -22.1353    0.7962  -14.2904 C   0  0  0  0  0  0  0  0  0  0  0  0
  -22.8780    1.9029  -13.8919 C   0  0  0  0  0  0  0  0  0  0  0  0
  -22.3046    3.1582  -14.0147 C   0  0  0  0  0  0  0  0  0  0  0  0
  -21.0420    3.3752  -14.4418 N   0  0  0  0  0  0  0  0  0  0  0  0
  -20.3121    2.2784  -14.7492 C   0  0  0  0  0  0  0  0  0  0  0  0
  -20.8175    0.9832  -14.6979 C   0  0  0  0  0  0  0  0  0  0  0  0
  -18.9374    2.5521  -15.1471 C   0  0  0  0  0  0  0  0  0  0  0  0
  -17.9074    1.6906  -15.4698 C   0  0  0  0  0  0  0  0  0  0  0  0
  -16.7807    2.4427  -15.9107 C   0  0  0  0  0  0  0  0  0  0  0  0
  -17.1173    3.7676  -15.6837 C   0  0  0  0  0  0  0  0  0  0  0  0
  -18.4130    3.8219  -15.2346 N   0  0  0  0  0  0  0  0  0  0  0  0
  -18.9331    4.6586  -14.9989 H   0  0  0  0  0  0  0  0  0  0  0  0
  -15.4901    1.9689  -16.4217 C   0  0  0  0  0  0  0  0  0  0  0  0
  -15.2017    2.1220  -17.6085 O   0  0  0  0  0  0  0  0  0  0  0  0
  -14.6064    1.3468  -15.5263 N   0  0  0  0  0  0  0  0  0  0  0  0
  -13.2034    1.2177  -15.9055 C   0  0  0  0  0  0  0  0  0  0  0  0
  -12.7019   -0.2078  -15.6995 C   0  0  0  0  0  0  0  0  0  0  0  0
  -13.0066   -0.7481  -14.3001 C   0  0  0  0  0  0  0  0  0  0  0  0
  -14.4724   -0.5380  -13.9361 C   0  0  0  0  0  0  0  0  0  0  0  0
  -14.9489    0.8863  -14.1826 C   0  0  0  0  0  0  0  0  0  0  0  0
  -11.8867   -0.0721  -13.0643 S   0  0  0  0  0  0  0  0  0  0  0  0
  -12.4317    1.1635  -12.5509 O   0  0  0  0  0  0  0  0  0  0  0  0
  -11.3749   -1.1070  -12.1994 O   0  0  0  0  0  0  0  0  0  0  0  0
  -10.6965    0.3741  -14.0606 O   0  0  0  0  0  0  0  0  0  0  0  0
  -10.6153    1.3518  -14.0203 H   0  0  0  0  0  0  0  0  0  0  0  0
  -22.5944   -0.4998  -14.2568 O   0  0  0  0  0  0  0  0  0  0  0  0
  -26.1607   -1.3076  -12.2346 C   0  0  0  0  0  0  0  0  0  0  0  0
  -26.0564   -1.6337  -13.5911 C   0  0  0  0  0  0  0  0  0  0  0  0
  -24.8731   -1.3946  -14.2883 C   0  0  0  0  0  0  0  0  0  0  0  0
  -23.8011   -0.7715  -13.6486 C   0  0  0  0  0  0  0  0  0  0  0  0
  -23.9015   -0.4485  -12.2919 C   0  0  0  0  0  0  0  0  0  0  0  0
  -25.0891   -0.6906  -11.5884 C   0  0  0  0  0  0  0  0  0  0  0  0
  -28.3500   -2.4147   -9.5697 N   0  0  0  0  0  0  0  0  0  0  0  0
  -27.1698   -1.9837  -10.1482 C   0  0  0  0  0  0  0  0  0  0  0  0
  -26.1112   -1.8204   -9.5577 O   0  0  0  0  0  0  0  0  0  0  0  0
  -27.3188   -1.6729  -11.5016 N   0  0  0  0  0  0  0  0  0  0  0  0
  -29.1882   -2.3352  -10.1248 H   0  0  0  0  0  0  0  0  0  0  0  0
  -28.1582   -1.1548  -11.7131 H   0  0  0  0  0  0  0  0  0  0  0  0
  -29.6030   -5.8838   -6.2683 C   0  0  0  0  0  0  0  0  0  0  0  0
  -29.1591   -4.4825   -6.5751 C   0  0  0  0  0  0  0  0  0  0  0  0
  -28.9944   -3.5641   -5.5336 C   0  0  0  0  0  0  0  0  0  0  0  0
  -28.5476   -2.2782   -5.8076 C   0  0  0  0  0  0  0  0  0  0  0  0
  -28.2822   -1.8953   -7.1195 C   0  0  0  0  0  0  0  0  0  0  0  0
  -27.7206   -0.6902   -7.2732 F   0  0  0  0  0  0  0  0  0  0  0  0
  -28.5034   -2.7660   -8.1991 C   0  0  0  0  0  0  0  0  0  0  0  0
  -28.9118   -4.0783   -7.9040 C   0  0  0  0  0  0  0  0  0  0  0  0
 39 40  1  0  0  0
 40 41  1  0  0  0
 40 46  2  0  0  0
 41 42  2  0  0  0
 42 43  1  0  0  0
 43 44  1  0  0  0
 43 45  2  0  0  0
 45 33  1  0  0  0
 45 46  1  0  0  0
 33 34  1  0  0  0
 33 37  1  0  0  0
 34 35  2  0  0  0
 34 36  1  0  0  0
 36 27  1  0  0  0
 36 38  1  0  0  0
 27 28  1  0  0  0
 27 32  2  0  0  0
 28 29  2  0  0  0
 29 30  1  0  0  0
 30 26  1  0  0  0
 30 31  2  0  0  0
 26  1  1  0  0  0
  1  2  1  0  0  0
  1  6  2  0  0  0
  2  3  2  0  0  0
  3  4  1  0  0  0
  4  5  2  0  0  0
  5  7  1  0  0  0
  5  6  1  0  0  0
  7  8  2  0  0  0
  7 11  1  0  0  0
  8  9  1  0  0  0
  9 13  1  0  0  0
  9 10  2  0  0  0
 13 14  2  0  0  0
 13 15  1  0  0  0
 15 16  1  0  0  0
 15 20  1  0  0  0
 16 17  1  0  0  0
 17 18  1  0  0  0
 18 21  1  0  0  0
 18 19  1  0  0  0
 21 22  2  0  0  0
 21 23  2  0  0  0
 21 24  1  0  0  0
 24 25  1  0  0  0
 19 20  1  0  0  0
 10 11  1  0  0  0
 11 12  1  0  0  0
 31 32  1  0  0  0
M  END
> <minimizedAffinity>
-12.80063

$$$$
