CHEMBL396586


 25 28  0  0  0  0  0  0  0  0999 V2000
  -28.1914   -1.9583   -7.6829 C   0  0  0  0  0  0  0  0  0  0  0  0
  -27.6570   -0.9616   -6.8456 C   0  0  0  0  0  0  0  0  0  0  0  0
  -27.5077   -1.1440   -5.4575 C   0  0  0  0  0  0  0  0  0  0  0  0
  -27.8936   -2.3331   -4.8547 C   0  0  0  0  0  0  0  0  0  0  0  0
  -28.4455   -3.2954   -5.6738 C   0  0  0  0  0  0  0  0  0  0  0  0
  -28.6212   -3.1330   -7.0770 C   0  0  0  0  0  0  0  0  0  0  0  0
  -29.2607   -4.3697   -7.7371 C   0  0  0  0  0  0  0  0  0  0  0  0
  -29.3788   -5.2216   -6.5196 C   0  0  0  0  0  0  0  0  0  0  0  0
  -28.9177   -4.5926   -5.3547 C   0  0  0  0  0  0  0  0  0  0  0  0
  -29.0109   -5.3286   -4.2599 N   0  0  0  0  0  0  0  0  0  0  0  0
  -29.5535   -6.4736   -4.7430 N   0  0  0  0  0  0  0  0  0  0  0  0
  -29.8016   -6.4577   -6.1042 C   0  0  0  0  0  0  0  0  0  0  0  0
  -29.7226   -7.2306   -4.0924 H   0  0  0  0  0  0  0  0  0  0  0  0
  -30.3988   -7.5628   -6.8982 C   0  0  0  0  0  0  0  0  0  0  0  0
  -31.7769   -7.9290   -6.8986 C   0  0  0  0  0  0  0  0  0  0  0  0
  -32.0329   -8.9987   -7.7299 C   0  0  0  0  0  0  0  0  0  0  0  0
  -30.6191   -9.5589   -8.5114 S   0  0  0  0  0  0  0  0  0  0  0  0
  -29.6589   -8.3671   -7.7394 C   0  0  0  0  0  0  0  0  0  0  0  0
  -27.2581   -1.6598   -9.9572 C   0  0  0  0  0  0  0  0  0  0  0  0
  -26.0643   -1.7472   -9.7160 O   0  0  0  0  0  0  0  0  0  0  0  0
  -28.2986   -1.7941   -9.0766 N   0  0  0  0  0  0  0  0  0  0  0  0
  -29.2116   -1.7856   -9.5076 H   0  0  0  0  0  0  0  0  0  0  0  0
  -27.7557   -1.3764  -11.1925 O   0  0  0  0  0  0  0  0  0  0  0  0
  -27.7221   -2.1196  -13.4732 C   0  0  0  0  0  0  0  0  0  0  0  0
  -26.8762   -1.7365  -12.2714 C   0  0  0  0  0  0  0  0  0  0  0  0
 24 25  1  0  0  0
 25 23  1  0  0  0
 23 19  1  0  0  0
 19 20  2  0  0  0
 19 21  1  0  0  0
 21  1  1  0  0  0
 21 22  1  0  0  0
  1  2  1  0  0  0
  1  6  2  0  0  0
  2  3  2  0  0  0
  3  4  1  0  0  0
  4  5  2  0  0  0
  5  6  1  0  0  0
  5  9  1  0  0  0
  6  7  1  0  0  0
  7  8  1  0  0  0
  8  9  1  0  0  0
  8 12  2  0  0  0
  9 10  2  0  0  0
 10 11  1  0  0  0
 11 12  1  0  0  0
 11 13  1  0  0  0
 12 14  1  0  0  0
 14 15  1  0  0  0
 14 18  2  0  0  0
 15 16  2  0  0  0
 16 17  1  0  0  0
 17 18  1  0  0  0
M  END
> <minimizedAffinity>
-8.37962

$$$$
