CHEMBL2005899


 24 25  0  0  0  0  0  0  0  0999 V2000
  -28.1155   -8.8749   -5.1263 C   0  0  0  0  0  0  0  0  0  0  0  0
  -28.3058   -7.5410   -4.9135 C   0  0  0  0  0  0  0  0  0  0  0  0
  -29.1065   -7.8234   -3.6771 C   0  0  0  0  0  0  0  0  0  0  0  0
  -29.7546   -7.2381   -2.8618 O   0  0  0  0  0  0  0  0  0  0  0  0
  -28.8775   -9.2781   -3.9356 C   0  0  0  0  0  0  0  0  0  0  0  0
  -29.1563  -10.2751   -3.3284 O   0  0  0  0  0  0  0  0  0  0  0  0
  -25.4070   -9.5371   -4.5650 C   0  0  0  0  0  0  0  0  0  0  0  0
  -26.0389   -9.9399   -5.8822 C   0  0  0  0  0  0  0  0  0  0  0  0
  -25.3330  -10.5186   -6.7115 O   0  0  0  0  0  0  0  0  0  0  0  0
  -27.3956   -9.6227   -6.0625 N   0  0  0  0  0  0  0  0  0  0  0  0
  -28.1357   -9.9509   -7.2560 C   0  0  0  0  0  0  0  0  0  0  0  0
  -28.2034   -9.0945   -8.3575 C   0  0  0  0  0  0  0  0  0  0  0  0
  -29.0441   -9.4188   -9.4157 C   0  0  0  0  0  0  0  0  0  0  0  0
  -29.7965  -10.5367   -9.4664 N   0  0  0  0  0  0  0  0  0  0  0  0
  -29.6890  -11.3784   -8.4252 C   0  0  0  0  0  0  0  0  0  0  0  0
  -28.8843  -11.1375   -7.3267 C   0  0  0  0  0  0  0  0  0  0  0  0
  -27.9582   -6.3922   -5.4606 N   0  0  0  0  0  0  0  0  0  0  0  0
  -27.1186   -5.9177   -5.1267 H   0  0  0  0  0  0  0  0  0  0  0  0
  -28.8723   -5.5054   -6.2218 C   0  0  0  0  0  0  0  0  0  0  0  0
  -30.1100   -6.2987   -6.6949 C   0  0  0  0  0  0  0  0  0  0  0  0
  -29.2741   -4.2508   -5.3510 C   0  0  0  0  0  0  0  0  0  0  0  0
  -28.2380   -3.9957   -4.2337 C   0  0  0  0  0  0  0  0  0  0  0  0
  -29.3522   -2.9752   -6.2230 C   0  0  0  0  0  0  0  0  0  0  0  0
  -30.6564   -4.4336   -4.6891 C   0  0  0  0  0  0  0  0  0  0  0  0
  7  8  1  0  0  0
  8  9  2  0  0  0
  8 10  1  0  0  0
 10 11  1  0  0  0
 10  1  1  0  0  0
 11 12  1  0  0  0
 11 16  2  0  0  0
 12 13  2  0  0  0
 13 14  1  0  0  0
 14 15  2  0  0  0
 15 16  1  0  0  0
  1  2  2  0  0  0
  1  5  1  0  0  0
  2 17  1  0  0  0
  2  3  1  0  0  0
 17 19  1  0  0  0
 17 18  1  0  0  0
 19 20  1  0  0  0
 19 21  1  0  0  0
 21 22  1  0  0  0
 21 23  1  0  0  0
 21 24  1  0  0  0
  3  4  2  0  0  0
  3  5  1  0  0  0
  5  6  2  0  0  0
M  END
> <minimizedAffinity>
-6.35550

$$$$
