CHEMBL3644553


 33 36  0  0  0  0  0  0  0  0999 V2000
  -22.4307    0.5129  -13.8926 C   0  0  0  0  0  0  0  0  0  0  0  0
  -23.0943    1.7481  -13.7986 C   0  0  0  0  0  0  0  0  0  0  0  0
  -22.4271    2.9588  -13.9965 C   0  0  0  0  0  0  0  0  0  0  0  0
  -21.0695    2.9581  -14.2868 C   0  0  0  0  0  0  0  0  0  0  0  0
  -20.3714    1.7486  -14.3813 C   0  0  0  0  0  0  0  0  0  0  0  0
  -21.0514    0.5398  -14.1828 C   0  0  0  0  0  0  0  0  0  0  0  0
  -26.7756   -1.7147  -11.8336 C   0  0  0  0  0  0  0  0  0  0  0  0
  -27.8873   -1.9339  -12.6376 C   0  0  0  0  0  0  0  0  0  0  0  0
  -27.8637   -1.8966  -13.9928 N   0  0  0  0  0  0  0  0  0  0  0  0
  -26.6774   -1.6036  -14.5718 C   0  0  0  0  0  0  0  0  0  0  0  0
  -25.4976   -1.3684  -13.8698 C   0  0  0  0  0  0  0  0  0  0  0  0
  -25.5414   -1.4645  -12.4620 C   0  0  0  0  0  0  0  0  0  0  0  0
  -24.2761   -1.2534  -11.6623 C   0  0  0  0  0  0  0  0  0  0  0  0
  -23.0278   -1.4600  -12.5116 C   0  0  0  0  0  0  0  0  0  0  0  0
  -23.1306   -0.6710  -13.7328 N   0  0  0  0  0  0  0  0  0  0  0  0
  -24.2298   -1.0396  -14.6341 C   0  0  0  0  0  0  0  0  0  0  0  0
  -26.9163   -1.7054  -10.3617 C   0  0  0  0  0  0  0  0  0  0  0  0
  -25.9894   -1.5118   -9.5879 O   0  0  0  0  0  0  0  0  0  0  0  0
  -28.2867   -2.6423   -8.7307 C   0  0  0  0  0  0  0  0  0  0  0  0
  -28.1915   -1.9962  -10.0037 O   0  0  0  0  0  0  0  0  0  0  0  0
  -18.9042    1.8235  -14.6234 C   0  0  0  0  0  0  0  0  0  0  0  0
  -18.1844    1.3164  -13.7681 O   0  0  0  0  0  0  0  0  0  0  0  0
  -18.4795    2.5291  -15.7438 N   0  0  0  0  0  0  0  0  0  0  0  0
  -19.1785    3.0302  -16.2751 H   0  0  0  0  0  0  0  0  0  0  0  0
  -17.1217    2.8284  -16.0417 C   0  0  0  0  0  0  0  0  0  0  0  0
  -16.6366    4.1366  -16.1145 C   0  0  0  0  0  0  0  0  0  0  0  0
  -15.3280    4.3958  -16.5211 C   0  0  0  0  0  0  0  0  0  0  0  0
  -14.4811    3.3462  -16.8567 C   0  0  0  0  0  0  0  0  0  0  0  0
  -14.9204    2.0184  -16.7637 C   0  0  0  0  0  0  0  0  0  0  0  0
  -16.2393    1.7702  -16.3226 C   0  0  0  0  0  0  0  0  0  0  0  0
  -13.9730    0.9114  -17.1992 C   0  0  0  0  0  0  0  0  0  0  0  0
  -14.1188    0.5647  -18.6800 C   0  0  0  0  0  0  0  0  0  0  0  0
  -12.5203    1.2407  -16.8480 C   0  0  0  0  0  0  0  0  0  0  0  0
 19 20  1  0  0  0
 20 17  1  0  0  0
 17 18  2  0  0  0
 17  7  1  0  0  0
  7  8  1  0  0  0
  7 12  2  0  0  0
  8  9  2  0  0  0
  9 10  1  0  0  0
 10 11  2  0  0  0
 11 12  1  0  0  0
 11 16  1  0  0  0
 12 13  1  0  0  0
 13 14  1  0  0  0
 14 15  1  0  0  0
 15  1  1  0  0  0
 15 16  1  0  0  0
  1  2  1  0  0  0
  1  6  2  0  0  0
  2  3  2  0  0  0
  3  4  1  0  0  0
  4  5  2  0  0  0
  5 21  1  0  0  0
  5  6  1  0  0  0
 21 22  2  0  0  0
 21 23  1  0  0  0
 23 25  1  0  0  0
 23 24  1  0  0  0
 25 26  1  0  0  0
 25 30  2  0  0  0
 26 27  2  0  0  0
 27 28  1  0  0  0
 28 29  2  0  0  0
 29 31  1  0  0  0
 29 30  1  0  0  0
 31 32  1  0  0  0
 31 33  1  0  0  0
M  END
> <minimizedAffinity>
-9.98565

$$$$
