CHEMBL411829


 22 24  0  0  0  0  0  0  0  0999 V2000
  -15.8335    1.8724  -15.2999 C   0  0  0  0  0  0  0  0  0  0  0  0
  -14.5922    1.2999  -15.1227 C   0  0  0  0  0  0  0  0  0  0  0  0
  -14.3307    0.3085  -14.2467 N   0  0  0  0  0  0  0  0  0  0  0  0
  -15.3441   -0.0773  -13.4648 C   0  0  0  0  0  0  0  0  0  0  0  0
  -16.5834    0.4338  -13.5657 N   0  0  0  0  0  0  0  0  0  0  0  0
  -16.8509    1.3727  -14.5053 C   0  0  0  0  0  0  0  0  0  0  0  0
  -18.2863    1.7468  -14.5920 C   0  0  0  0  0  0  0  0  0  0  0  0
  -19.2474    0.8315  -15.0740 C   0  0  0  0  0  0  0  0  0  0  0  0
  -20.6018    1.1720  -15.1717 C   0  0  0  0  0  0  0  0  0  0  0  0
  -21.0347    2.4359  -14.7825 C   0  0  0  0  0  0  0  0  0  0  0  0
  -20.1114    3.3642  -14.3222 C   0  0  0  0  0  0  0  0  0  0  0  0
  -18.7575    3.0306  -14.2533 C   0  0  0  0  0  0  0  0  0  0  0  0
  -16.1025    3.7922  -17.0071 N   0  0  0  0  0  0  0  0  0  0  0  0
  -15.9829    2.9133  -16.2547 C   0  0  0  0  0  0  0  0  0  0  0  0
  -15.0971   -1.0943  -12.5518 N   0  0  0  0  0  0  0  0  0  0  0  0
  -14.6018   -0.7677  -11.7372 H   0  0  0  0  0  0  0  0  0  0  0  0
  -15.6717   -2.3699  -12.4881 C   0  0  0  0  0  0  0  0  0  0  0  0
  -15.8981   -2.9659  -11.2422 C   0  0  0  0  0  0  0  0  0  0  0  0
  -16.3805   -4.2756  -11.1532 C   0  0  0  0  0  0  0  0  0  0  0  0
  -16.6542   -5.0024  -12.3104 C   0  0  0  0  0  0  0  0  0  0  0  0
  -16.4444   -4.4216  -13.5565 C   0  0  0  0  0  0  0  0  0  0  0  0
  -15.9484   -3.1200  -13.6401 C   0  0  0  0  0  0  0  0  0  0  0  0
 13 14  3  0  0  0
 14  1  1  0  0  0
  1  2  1  0  0  0
  1  6  2  0  0  0
  2  3  2  0  0  0
  3  4  1  0  0  0
  4 15  1  0  0  0
  4  5  2  0  0  0
 15 17  1  0  0  0
 15 16  1  0  0  0
 17 18  1  0  0  0
 17 22  2  0  0  0
 18 19  2  0  0  0
 19 20  1  0  0  0
 20 21  2  0  0  0
 21 22  1  0  0  0
  5  6  1  0  0  0
  6  7  1  0  0  0
  7  8  1  0  0  0
  7 12  2  0  0  0
  8  9  2  0  0  0
  9 10  1  0  0  0
 10 11  2  0  0  0
 11 12  1  0  0  0
M  END
> <minimizedAffinity>
-8.11406

$$$$
