CHEMBL4162400


 40 44  0  0  0  0  0  0  0  0999 V2000
  -27.7760   -2.7435   -8.6371 C   0  0  0  0  0  0  0  0  0  0  0  0
  -28.3934   -2.5174   -7.3884 C   0  0  0  0  0  0  0  0  0  0  0  0
  -28.8396   -3.5899   -6.5920 C   0  0  0  0  0  0  0  0  0  0  0  0
  -28.7060   -4.8781   -7.0796 C   0  0  0  0  0  0  0  0  0  0  0  0
  -28.0332   -5.0693   -8.2954 C   0  0  0  0  0  0  0  0  0  0  0  0
  -27.5508   -4.0436   -9.0802 C   0  0  0  0  0  0  0  0  0  0  0  0
  -28.0443   -6.4053   -8.6767 N   0  0  0  0  0  0  0  0  0  0  0  0
  -28.8696   -7.1227   -7.8400 C   0  0  0  0  0  0  0  0  0  0  0  0
  -29.4278   -8.1784   -8.1391 O   0  0  0  0  0  0  0  0  0  0  0  0
  -29.1520   -6.2344   -6.6534 C   0  0  0  0  0  0  0  0  0  0  0  0
  -29.6632   -6.7183   -5.5035 C   0  0  0  0  0  0  0  0  0  0  0  0
  -27.7564   -6.7414   -9.5822 H   0  0  0  0  0  0  0  0  0  0  0  0
  -30.2493   -5.7782   -4.5147 C   0  0  0  0  0  0  0  0  0  0  0  0
  -31.6304   -5.8493   -4.2399 C   0  0  0  0  0  0  0  0  0  0  0  0
  -32.2524   -4.9036   -3.4191 C   0  0  0  0  0  0  0  0  0  0  0  0
  -31.4965   -3.8959   -2.8251 C   0  0  0  0  0  0  0  0  0  0  0  0
  -30.1176   -3.8517   -3.0319 C   0  0  0  0  0  0  0  0  0  0  0  0
  -29.4969   -4.7866   -3.8730 C   0  0  0  0  0  0  0  0  0  0  0  0
  -27.3956   -1.6493   -9.5703 C   0  0  0  0  0  0  0  0  0  0  0  0
  -28.2092   -0.9203  -10.1149 O   0  0  0  0  0  0  0  0  0  0  0  0
  -25.6246   -1.3812  -11.0468 C   0  0  0  0  0  0  0  0  0  0  0  0
  -26.0523   -1.5772   -9.6984 O   0  0  0  0  0  0  0  0  0  0  0  0
  -29.7553   -8.0609   -5.1216 N   0  0  0  0  0  0  0  0  0  0  0  0
  -30.6634   -8.5053   -5.2166 H   0  0  0  0  0  0  0  0  0  0  0  0
  -28.6581   -8.9104   -4.8264 C   0  0  0  0  0  0  0  0  0  0  0  0
  -27.7868   -8.5984   -3.7787 C   0  0  0  0  0  0  0  0  0  0  0  0
  -26.4973   -9.1798   -3.6770 C   0  0  0  0  0  0  0  0  0  0  0  0
  -26.0984  -10.1257   -4.6354 C   0  0  0  0  0  0  0  0  0  0  0  0
  -27.0112  -10.5733   -5.6070 C   0  0  0  0  0  0  0  0  0  0  0  0
  -28.2841   -9.9515   -5.6896 C   0  0  0  0  0  0  0  0  0  0  0  0
  -26.3741  -11.6013   -6.3739 C   0  0  0  0  0  0  0  0  0  0  0  0
  -25.0561  -11.6225   -5.9643 C   0  0  0  0  0  0  0  0  0  0  0  0
  -24.8896  -10.7770   -4.8908 N   0  0  0  0  0  0  0  0  0  0  0  0
  -23.6263  -10.6741   -4.1488 C   0  0  0  0  0  0  0  0  0  0  0  0
  -23.7189  -11.3542   -2.7732 C   0  0  0  0  0  0  0  0  0  0  0  0
  -22.4057  -11.2544   -4.8829 C   0  0  0  0  0  0  0  0  0  0  0  0
  -26.9937  -12.4327   -7.4621 C   0  0  0  0  0  0  0  0  0  0  0  0
  -27.4374  -11.6169   -8.6134 N   0  0  0  0  0  0  0  0  0  0  0  0
  -26.3207  -10.9935   -9.3325 C   0  0  0  0  0  0  0  0  0  0  0  0
  -28.1794  -12.4645   -9.5554 C   0  0  0  0  0  0  0  0  0  0  0  0
 21 22  1  0  0  0
 22 19  1  0  0  0
 19 20  2  0  0  0
 19  1  1  0  0  0
  1  2  1  0  0  0
  1  6  2  0  0  0
  2  3  2  0  0  0
  3  4  1  0  0  0
  4  5  2  0  0  0
  4 10  1  0  0  0
  5  6  1  0  0  0
  5  7  1  0  0  0
  7  8  1  0  0  0
  7 12  1  0  0  0
  8  9  2  0  0  0
  8 10  1  0  0  0
 10 11  2  0  0  0
 11 23  1  0  0  0
 11 13  1  0  0  0
 23 25  1  0  0  0
 23 24  1  0  0  0
 25 26  1  0  0  0
 25 30  2  0  0  0
 26 27  2  0  0  0
 27 28  1  0  0  0
 28 29  2  0  0  0
 28 33  1  0  0  0
 29 30  1  0  0  0
 29 31  1  0  0  0
 31 37  1  0  0  0
 31 32  2  0  0  0
 37 38  1  0  0  0
 38 39  1  0  0  0
 38 40  1  0  0  0
 32 33  1  0  0  0
 33 34  1  0  0  0
 34 35  1  0  0  0
 34 36  1  0  0  0
 13 14  1  0  0  0
 13 18  2  0  0  0
 14 15  2  0  0  0
 15 16  1  0  0  0
 16 17  2  0  0  0
 17 18  1  0  0  0
M  END
> <minimizedAffinity>
-8.11816

$$$$
