CHEMBL3936457


 46 50  0  0  0  0  0  0  0  0999 V2000
  -27.9594   -2.2493   -8.9050 N   0  0  0  0  0  0  0  0  0  0  0  0
  -27.9315   -1.4382   -7.8080 C   0  0  0  0  0  0  0  0  0  0  0  0
  -27.6433   -0.2473   -7.8250 O   0  0  0  0  0  0  0  0  0  0  0  0
  -28.3694   -2.0347   -6.6431 N   0  0  0  0  0  0  0  0  0  0  0  0
  -28.7506   -2.8711   -8.9580 H   0  0  0  0  0  0  0  0  0  0  0  0
  -28.6846   -1.3615   -5.9535 H   0  0  0  0  0  0  0  0  0  0  0  0
  -28.5904   -3.4066   -6.4138 C   0  0  0  0  0  0  0  0  0  0  0  0
  -29.5665   -4.1309   -7.1128 C   0  0  0  0  0  0  0  0  0  0  0  0
  -30.0220   -5.3507   -6.6432 C   0  0  0  0  0  0  0  0  0  0  0  0
  -29.3805   -5.9443   -5.5667 C   0  0  0  0  0  0  0  0  0  0  0  0
  -28.2801   -5.3025   -4.9840 C   0  0  0  0  0  0  0  0  0  0  0  0
  -27.6041   -5.8661   -3.9731 F   0  0  0  0  0  0  0  0  0  0  0  0
  -27.8699   -4.0413   -5.4098 C   0  0  0  0  0  0  0  0  0  0  0  0
  -29.9554   -7.1092   -5.1276 O   0  0  0  0  0  0  0  0  0  0  0  0
  -29.2994   -8.2962   -5.3235 C   0  0  0  0  0  0  0  0  0  0  0  0
  -28.9025   -9.1387   -4.2921 C   0  0  0  0  0  0  0  0  0  0  0  0
  -28.2942  -10.3170   -4.6408 C   0  0  0  0  0  0  0  0  0  0  0  0
  -28.0248  -10.6546   -5.9121 N   0  0  0  0  0  0  0  0  0  0  0  0
  -28.3619   -9.8149   -6.9064 C   0  0  0  0  0  0  0  0  0  0  0  0
  -29.0025   -8.6140   -6.6501 C   0  0  0  0  0  0  0  0  0  0  0  0
  -28.0625  -10.1626   -8.2368 N   0  0  0  0  0  0  0  0  0  0  0  0
  -28.8904  -10.9382   -9.0093 C   0  0  0  0  0  0  0  0  0  0  0  0
  -29.9708  -11.4138   -8.6831 O   0  0  0  0  0  0  0  0  0  0  0  0
  -27.1986   -9.8304   -8.6308 H   0  0  0  0  0  0  0  0  0  0  0  0
  -28.4192  -11.2220  -10.3852 C   0  0  0  0  0  0  0  0  0  0  0  0
  -27.4805  -10.2466  -11.0670 C   0  0  0  0  0  0  0  0  0  0  0  0
  -28.9038  -10.3493  -11.5286 C   0  0  0  0  0  0  0  0  0  0  0  0
  -25.7439   -0.9898  -11.3232 C   0  0  0  0  0  0  0  0  0  0  0  0
  -26.3484   -1.3404  -12.5281 C   0  0  0  0  0  0  0  0  0  0  0  0
  -27.6368   -1.8915  -12.5270 C   0  0  0  0  0  0  0  0  0  0  0  0
  -28.2180   -2.2002  -11.2989 C   0  0  0  0  0  0  0  0  0  0  0  0
  -27.4876   -1.9315  -10.1634 C   0  0  0  0  0  0  0  0  0  0  0  0
  -26.3228   -1.2569  -10.1510 N   0  0  0  0  0  0  0  0  0  0  0  0
  -28.4094   -2.1325  -13.7911 C   0  0  0  0  0  0  0  0  0  0  0  0
  -28.7751   -3.4303  -13.9704 F   0  0  0  0  0  0  0  0  0  0  0  0
  -29.5580   -1.4053  -13.8462 F   0  0  0  0  0  0  0  0  0  0  0  0
  -27.6971   -1.7889  -14.9021 F   0  0  0  0  0  0  0  0  0  0  0  0
  -24.4670   -0.4207  -11.3651 N   0  0  0  0  0  0  0  0  0  0  0  0
  -24.5642    0.4568  -11.8749 H   0  0  0  0  0  0  0  0  0  0  0  0
  -22.2224    1.8811  -14.6433 C   0  0  0  0  0  0  0  0  0  0  0  0
  -22.2159    0.5802  -13.9654 N   0  0  0  0  0  0  0  0  0  0  0  0
  -21.9600    0.7757  -12.5299 C   0  0  0  0  0  0  0  0  0  0  0  0
  -21.9994   -0.5486  -11.7693 C   0  0  0  0  0  0  0  0  0  0  0  0
  -23.3635   -1.2319  -11.9189 C   0  0  0  0  0  0  0  0  0  0  0  0
  -23.6021   -1.4322  -13.4242 C   0  0  0  0  0  0  0  0  0  0  0  0
  -23.4941   -0.1116  -14.1974 C   0  0  0  0  0  0  0  0  0  0  0  0
 40 41  1  0  0  0
 41 42  1  0  0  0
 41 46  1  0  0  0
 42 43  1  0  0  0
 43 44  1  0  0  0
 44 38  1  0  0  0
 44 45  1  0  0  0
 38 28  1  0  0  0
 38 39  1  0  0  0
 28 29  1  0  0  0
 28 33  2  0  0  0
 29 30  2  0  0  0
 30 34  1  0  0  0
 30 31  1  0  0  0
 34 35  1  0  0  0
 34 36  1  0  0  0
 34 37  1  0  0  0
 31 32  2  0  0  0
 32  1  1  0  0  0
 32 33  1  0  0  0
  1  2  1  0  0  0
  1  5  1  0  0  0
  2  3  2  0  0  0
  2  4  1  0  0  0
  4  7  1  0  0  0
  4  6  1  0  0  0
  7  8  1  0  0  0
  7 13  2  0  0  0
  8  9  2  0  0  0
  9 10  1  0  0  0
 10 14  1  0  0  0
 10 11  2  0  0  0
 14 15  1  0  0  0
 15 16  1  0  0  0
 15 20  2  0  0  0
 16 17  2  0  0  0
 17 18  1  0  0  0
 18 19  2  0  0  0
 19 21  1  0  0  0
 19 20  1  0  0  0
 21 22  1  0  0  0
 21 24  1  0  0  0
 22 23  2  0  0  0
 22 25  1  0  0  0
 25 26  1  0  0  0
 25 27  1  0  0  0
 26 27  1  0  0  0
 11 12  1  0  0  0
 11 13  1  0  0  0
 45 46  1  0  0  0
M  END
> <minimizedAffinity>
-7.65036

$$$$
