CHEMBL3593296


 42 46  0  0  0  0  0  0  0  0999 V2000
  -25.0179   -0.8834  -12.4402 C   0  0  0  0  0  0  0  0  0  0  0  0
  -26.2170   -1.2114  -13.0510 C   0  0  0  0  0  0  0  0  0  0  0  0
  -27.1284   -1.8945  -12.2812 N   0  0  0  0  0  0  0  0  0  0  0  0
  -26.6293   -2.0944  -11.0892 C   0  0  0  0  0  0  0  0  0  0  0  0
  -25.0723   -1.4674  -10.8110 S   0  0  0  0  0  0  0  0  0  0  0  0
  -21.6022    1.1255  -14.0698 C   0  0  0  0  0  0  0  0  0  0  0  0
  -22.6128    1.8642  -13.4610 C   0  0  0  0  0  0  0  0  0  0  0  0
  -23.7399    1.2185  -12.9497 C   0  0  0  0  0  0  0  0  0  0  0  0
  -23.8560   -0.1776  -13.0008 C   0  0  0  0  0  0  0  0  0  0  0  0
  -22.8277   -0.9024  -13.6332 C   0  0  0  0  0  0  0  0  0  0  0  0
  -21.7269   -0.2535  -14.1986 C   0  0  0  0  0  0  0  0  0  0  0  0
  -19.2667    3.4527  -15.6235 N   0  0  0  0  0  0  0  0  0  0  0  0
  -20.4662    2.9943  -15.1514 C   0  0  0  0  0  0  0  0  0  0  0  0
  -21.4479    3.7314  -15.2332 O   0  0  0  0  0  0  0  0  0  0  0  0
  -20.4617    1.7480  -14.5823 N   0  0  0  0  0  0  0  0  0  0  0  0
  -19.3012    4.3955  -15.9836 H   0  0  0  0  0  0  0  0  0  0  0  0
  -19.5594    1.4524  -14.2238 H   0  0  0  0  0  0  0  0  0  0  0  0
  -14.5695    2.0513  -16.5067 C   0  0  0  0  0  0  0  0  0  0  0  0
  -15.9899    2.2361  -16.1726 C   0  0  0  0  0  0  0  0  0  0  0  0
  -16.8558    3.3023  -16.1558 C   0  0  0  0  0  0  0  0  0  0  0  0
  -18.0902    2.7465  -15.7484 C   0  0  0  0  0  0  0  0  0  0  0  0
  -17.9581    1.4386  -15.5012 N   0  0  0  0  0  0  0  0  0  0  0  0
  -16.6520    1.1175  -15.7863 O   0  0  0  0  0  0  0  0  0  0  0  0
  -27.2084   -2.7438  -10.0274 N   0  0  0  0  0  0  0  0  0  0  0  0
  -27.7373   -2.0101   -8.9939 C   0  0  0  0  0  0  0  0  0  0  0  0
  -27.8163   -0.7857   -8.9315 O   0  0  0  0  0  0  0  0  0  0  0  0
  -27.3260   -3.7418  -10.0961 H   0  0  0  0  0  0  0  0  0  0  0  0
  -28.3154   -2.7605   -7.8445 C   0  0  0  0  0  0  0  0  0  0  0  0
  -28.1210   -2.3931   -6.5098 C   0  0  0  0  0  0  0  0  0  0  0  0
  -28.8066   -3.0768   -5.4955 C   0  0  0  0  0  0  0  0  0  0  0  0
  -29.7027   -4.1014   -5.8124 C   0  0  0  0  0  0  0  0  0  0  0  0
  -29.8517   -4.4993   -7.1384 C   0  0  0  0  0  0  0  0  0  0  0  0
  -29.1706   -3.8287   -8.1496 C   0  0  0  0  0  0  0  0  0  0  0  0
  -30.4650   -4.8008   -4.9239 O   0  0  0  0  0  0  0  0  0  0  0  0
  -30.6103   -6.2051   -5.1485 C   0  0  0  0  0  0  0  0  0  0  0  0
  -29.4889   -6.9447   -4.3991 C   0  0  0  0  0  0  0  0  0  0  0  0
  -28.4093   -7.4367   -5.2776 N   0  0  0  0  0  0  0  0  0  0  0  0
  -28.9034   -8.1840   -6.4553 C   0  0  0  0  0  0  0  0  0  0  0  0
  -29.5107   -9.5508   -6.1045 C   0  0  0  0  0  0  0  0  0  0  0  0
  -28.5642  -10.3708   -5.4087 O   0  0  0  0  0  0  0  0  0  0  0  0
  -28.0874   -9.7182   -4.2241 C   0  0  0  0  0  0  0  0  0  0  0  0
  -27.4889   -8.3338   -4.5382 C   0  0  0  0  0  0  0  0  0  0  0  0
 18 19  1  0  0  0
 19 20  2  0  0  0
 19 23  1  0  0  0
 20 21  1  0  0  0
 21 12  1  0  0  0
 21 22  2  0  0  0
 12 13  1  0  0  0
 12 16  1  0  0  0
 13 14  2  0  0  0
 13 15  1  0  0  0
 15  6  1  0  0  0
 15 17  1  0  0  0
  6  7  1  0  0  0
  6 11  2  0  0  0
  7  8  2  0  0  0
  8  9  1  0  0  0
  9  1  1  0  0  0
  9 10  2  0  0  0
  1  2  2  0  0  0
  1  5  1  0  0  0
  2  3  1  0  0  0
  3  4  2  0  0  0
  4 24  1  0  0  0
  4  5  1  0  0  0
 24 25  1  0  0  0
 24 27  1  0  0  0
 25 26  2  0  0  0
 25 28  1  0  0  0
 28 29  1  0  0  0
 28 33  2  0  0  0
 29 30  2  0  0  0
 30 31  1  0  0  0
 31 34  1  0  0  0
 31 32  2  0  0  0
 34 35  1  0  0  0
 35 36  1  0  0  0
 36 37  1  0  0  0
 37 38  1  0  0  0
 37 42  1  0  0  0
 38 39  1  0  0  0
 39 40  1  0  0  0
 40 41  1  0  0  0
 41 42  1  0  0  0
 32 33  1  0  0  0
 10 11  1  0  0  0
 22 23  1  0  0  0
M  END
> <minimizedAffinity>
-10.49385

$$$$
