CHEMBL462003


 37 41  0  0  0  0  0  0  0  0999 V2000
  -29.6843   -5.1830   -6.1655 C   0  0  0  0  0  0  0  0  0  0  0  0
  -29.0293   -5.5725   -7.3371 C   0  0  0  0  0  0  0  0  0  0  0  0
  -28.2851   -4.6520   -8.1018 C   0  0  0  0  0  0  0  0  0  0  0  0
  -28.2152   -3.3056   -7.6899 C   0  0  0  0  0  0  0  0  0  0  0  0
  -27.6172   -2.0922   -8.1695 C   0  0  0  0  0  0  0  0  0  0  0  0
  -27.9130   -1.0764   -7.3592 N   0  0  0  0  0  0  0  0  0  0  0  0
  -28.6819   -1.5978   -6.3994 N   0  0  0  0  0  0  0  0  0  0  0  0
  -29.2415   -0.7239   -5.3956 C   0  0  0  0  0  0  0  0  0  0  0  0
  -28.9000   -2.9410   -6.5291 C   0  0  0  0  0  0  0  0  0  0  0  0
  -29.6485   -3.8450   -5.7542 C   0  0  0  0  0  0  0  0  0  0  0  0
  -26.8483   -1.9507   -9.3219 N   0  0  0  0  0  0  0  0  0  0  0  0
  -27.3708   -1.5482  -10.5449 C   0  0  0  0  0  0  0  0  0  0  0  0
  -28.5336   -1.2405  -10.7904 O   0  0  0  0  0  0  0  0  0  0  0  0
  -25.8680   -2.1358   -9.2153 H   0  0  0  0  0  0  0  0  0  0  0  0
  -26.4178   -1.4637  -11.6942 C   0  0  0  0  0  0  0  0  0  0  0  0
  -26.7842   -1.7470  -13.0178 C   0  0  0  0  0  0  0  0  0  0  0  0
  -25.8497   -1.5959  -14.0485 C   0  0  0  0  0  0  0  0  0  0  0  0
  -24.5568   -1.1547  -13.7616 C   0  0  0  0  0  0  0  0  0  0  0  0
  -23.6862   -1.0127  -14.7714 F   0  0  0  0  0  0  0  0  0  0  0  0
  -24.1904   -0.8595  -12.4556 C   0  0  0  0  0  0  0  0  0  0  0  0
  -22.6023   -0.2875  -12.0966 Cl  0  0  0  0  0  0  0  0  0  0  0  0
  -25.1147   -1.0080  -11.4232 C   0  0  0  0  0  0  0  0  0  0  0  0
  -30.4082   -6.1594   -5.4964 O   0  0  0  0  0  0  0  0  0  0  0  0
  -27.9858  -10.6533   -5.3363 C   0  0  0  0  0  0  0  0  0  0  0  0
  -29.0822  -10.7423   -6.2076 C   0  0  0  0  0  0  0  0  0  0  0  0
  -29.9358   -9.6778   -6.4514 C   0  0  0  0  0  0  0  0  0  0  0  0
  -30.9016   -9.8512   -7.3664 N   0  0  0  0  0  0  0  0  0  0  0  0
  -31.7242   -8.8187   -7.6315 C   0  0  0  0  0  0  0  0  0  0  0  0
  -31.6253   -7.5867   -7.0257 C   0  0  0  0  0  0  0  0  0  0  0  0
  -30.5936   -7.3881   -6.1088 C   0  0  0  0  0  0  0  0  0  0  0  0
  -29.7395   -8.4679   -5.7619 C   0  0  0  0  0  0  0  0  0  0  0  0
  -28.7072   -8.4117   -4.7967 C   0  0  0  0  0  0  0  0  0  0  0  0
  -27.8226   -9.4856   -4.5829 C   0  0  0  0  0  0  0  0  0  0  0  0
  -26.2140  -11.9075   -6.3038 C   0  0  0  0  0  0  0  0  0  0  0  0
  -27.1014  -11.6929   -5.2015 O   0  0  0  0  0  0  0  0  0  0  0  0
  -26.8823   -9.1957   -3.6325 O   0  0  0  0  0  0  0  0  0  0  0  0
  -25.5690   -8.8254   -4.0236 C   0  0  0  0  0  0  0  0  0  0  0  0
 34 35  1  0  0  0
 35 24  1  0  0  0
 24 25  1  0  0  0
 24 33  2  0  0  0
 25 26  2  0  0  0
 26 27  1  0  0  0
 26 31  1  0  0  0
 27 28  2  0  0  0
 28 29  1  0  0  0
 29 30  2  0  0  0
 30 23  1  0  0  0
 30 31  1  0  0  0
 23  1  1  0  0  0
  1  2  1  0  0  0
  1 10  2  0  0  0
  2  3  2  0  0  0
  3  4  1  0  0  0
  4  5  1  0  0  0
  4  9  2  0  0  0
  5 11  1  0  0  0
  5  6  2  0  0  0
 11 12  1  0  0  0
 11 14  1  0  0  0
 12 13  2  0  0  0
 12 15  1  0  0  0
 15 16  1  0  0  0
 15 22  2  0  0  0
 16 17  2  0  0  0
 17 18  1  0  0  0
 18 19  1  0  0  0
 18 20  2  0  0  0
 20 21  1  0  0  0
 20 22  1  0  0  0
  6  7  1  0  0  0
  7  8  1  0  0  0
  7  9  1  0  0  0
  9 10  1  0  0  0
 31 32  2  0  0  0
 32 33  1  0  0  0
 33 36  1  0  0  0
 36 37  1  0  0  0
M  END
> <minimizedAffinity>
-10.12783

$$$$
