CHEMBL255902


 28 31  0  0  0  0  0  0  0  0999 V2000
  -25.0353   12.5893  -13.4561 C   0  0  0  0  0  0  0  0  0  0  0  0
  -25.5230   11.7031  -14.5473 C   0  0  0  0  0  0  0  0  0  0  0  0
  -24.7522   11.0576  -15.5602 C   0  0  0  0  0  0  0  0  0  0  0  0
  -25.6093   10.3042  -16.3324 C   0  0  0  0  0  0  0  0  0  0  0  0
  -26.8776   10.5329  -15.8911 N   0  0  0  0  0  0  0  0  0  0  0  0
  -27.9987   10.0435  -16.4492 N   0  0  0  0  0  0  0  0  0  0  0  0
  -29.0967   10.4427  -15.8862 C   0  0  0  0  0  0  0  0  0  0  0  0
  -29.2101   11.2954  -14.8170 N   0  0  0  0  0  0  0  0  0  0  0  0
  -28.1111   11.7440  -14.3107 C   0  0  0  0  0  0  0  0  0  0  0  0
  -26.8423   11.3772  -14.8259 C   0  0  0  0  0  0  0  0  0  0  0  0
  -23.4123   11.1772  -15.7283 O   0  0  0  0  0  0  0  0  0  0  0  0
  -23.0468   12.1241  -16.7483 C   0  0  0  0  0  0  0  0  0  0  0  0
  -22.4695   11.4001  -17.9701 C   0  0  0  0  0  0  0  0  0  0  0  0
  -23.3392   11.5711  -19.2075 C   0  0  0  0  0  0  0  0  0  0  0  0
  -21.1556   11.8760  -18.2590 O   0  0  0  0  0  0  0  0  0  0  0  0
  -21.2241   12.8450  -18.3542 H   0  0  0  0  0  0  0  0  0  0  0  0
  -28.0330   12.6583  -13.2749 O   0  0  0  0  0  0  0  0  0  0  0  0
  -28.9595   12.5347  -12.2294 C   0  0  0  0  0  0  0  0  0  0  0  0
  -30.3338   12.5791  -12.4433 C   0  0  0  0  0  0  0  0  0  0  0  0
  -31.2842   12.5293  -11.4797 N   0  0  0  0  0  0  0  0  0  0  0  0
  -30.7673   12.4527  -10.2399 C   0  0  0  0  0  0  0  0  0  0  0  0
  -31.5166   12.3903   -9.0981 N   0  0  0  0  0  0  0  0  0  0  0  0
  -30.6895   12.3449   -8.0049 C   0  0  0  0  0  0  0  0  0  0  0  0
  -29.3862   12.3721   -8.4584 C   0  0  0  0  0  0  0  0  0  0  0  0
  -29.4248   12.4313   -9.8801 C   0  0  0  0  0  0  0  0  0  0  0  0
  -28.4860   12.4817  -10.9220 C   0  0  0  0  0  0  0  0  0  0  0  0
  -27.1708   12.4836  -10.6682 F   0  0  0  0  0  0  0  0  0  0  0  0
  -32.5261   12.3870   -9.0928 H   0  0  0  0  0  0  0  0  0  0  0  0
  1  2  1  0  0  0
  2  3  1  0  0  0
  2 10  2  0  0  0
  3 11  1  0  0  0
  3  4  2  0  0  0
 11 12  1  0  0  0
 12 13  1  0  0  0
 13 14  1  0  0  0
 13 15  1  0  0  0
 15 16  1  0  0  0
  4  5  1  0  0  0
  5  6  1  0  0  0
  5 10  1  0  0  0
  6  7  2  0  0  0
  7  8  1  0  0  0
  8  9  2  0  0  0
  9 17  1  0  0  0
  9 10  1  0  0  0
 17 18  1  0  0  0
 18 19  1  0  0  0
 18 26  2  0  0  0
 19 20  2  0  0  0
 20 21  1  0  0  0
 21 22  1  0  0  0
 21 25  2  0  0  0
 22 23  1  0  0  0
 22 28  1  0  0  0
 23 24  2  0  0  0
 24 25  1  0  0  0
 25 26  1  0  0  0
 26 27  1  0  0  0
M  END
> <minimizedAffinity>
-5.77972

$$$$
