CHEMBL2006237


 33 36  0  0  0  0  0  0  0  0999 V2000
  -24.6430   -1.4710  -11.9780 C   0  0  0  0  0  0  0  0  0  0  0  0
  -25.3578   -1.4596  -13.1763 C   0  0  0  0  0  0  0  0  0  0  0  0
  -26.7277   -1.6993  -13.1629 C   0  0  0  0  0  0  0  0  0  0  0  0
  -27.3611   -1.8961  -11.9470 C   0  0  0  0  0  0  0  0  0  0  0  0
  -26.5906   -1.8549  -10.7932 C   0  0  0  0  0  0  0  0  0  0  0  0
  -25.2498   -1.6538  -10.7899 N   0  0  0  0  0  0  0  0  0  0  0  0
  -27.1819   -2.0681   -9.4796 C   0  0  0  0  0  0  0  0  0  0  0  0
  -27.2764   -1.1987   -8.4902 N   0  0  0  0  0  0  0  0  0  0  0  0
  -27.9905   -1.8343   -7.4917 C   0  0  0  0  0  0  0  0  0  0  0  0
  -28.4140   -1.3688   -6.2335 C   0  0  0  0  0  0  0  0  0  0  0  0
  -29.1709   -2.2293   -5.4203 C   0  0  0  0  0  0  0  0  0  0  0  0
  -29.4893   -3.5239   -5.8438 C   0  0  0  0  0  0  0  0  0  0  0  0
  -29.0614   -4.0066   -7.0848 C   0  0  0  0  0  0  0  0  0  0  0  0
  -28.3178   -3.1310   -7.8781 C   0  0  0  0  0  0  0  0  0  0  0  0
  -27.7628   -3.2631   -9.1240 N   0  0  0  0  0  0  0  0  0  0  0  0
  -27.7927   -4.0724   -9.7297 H   0  0  0  0  0  0  0  0  0  0  0  0
  -28.0937   -0.0024   -5.7552 C   0  0  0  0  0  0  0  0  0  0  0  0
  -28.3358    1.0386   -6.6072 N   0  0  0  0  0  0  0  0  0  0  0  0
  -27.6263    0.1927   -4.6375 O   0  0  0  0  0  0  0  0  0  0  0  0
  -28.7332    0.8758   -7.5270 H   0  0  0  0  0  0  0  0  0  0  0  0
  -28.1313    1.9773   -6.3025 H   0  0  0  0  0  0  0  0  0  0  0  0
  -23.2624   -1.2249  -12.0214 N   0  0  0  0  0  0  0  0  0  0  0  0
  -23.0005   -0.6260  -11.2495 H   0  0  0  0  0  0  0  0  0  0  0  0
  -22.7910   -0.7418  -13.3224 C   0  0  0  0  0  0  0  0  0  0  0  0
  -22.6351    0.7818  -13.3033 C   0  0  0  0  0  0  0  0  0  0  0  0
  -21.2050    1.2156  -13.6740 C   0  0  0  0  0  0  0  0  0  0  0  0
  -16.9286    2.9655  -15.1706 C   0  0  0  0  0  0  0  0  0  0  0  0
  -18.1958    2.3756  -15.5854 N   0  0  0  0  0  0  0  0  0  0  0  0
  -18.3747    1.0279  -15.0223 C   0  0  0  0  0  0  0  0  0  0  0  0
  -19.7170    0.4123  -15.4782 C   0  0  0  0  0  0  0  0  0  0  0  0
  -20.9142    1.2035  -15.1160 N   0  0  0  0  0  0  0  0  0  0  0  0
  -20.7044    2.5899  -15.6107 C   0  0  0  0  0  0  0  0  0  0  0  0
  -19.3411    3.2323  -15.2313 C   0  0  0  0  0  0  0  0  0  0  0  0
 27 28  1  0  0  0
 28 29  1  0  0  0
 28 33  1  0  0  0
 29 30  1  0  0  0
 30 31  1  0  0  0
 31 26  1  0  0  0
 31 32  1  0  0  0
 26 25  1  0  0  0
 25 24  1  0  0  0
 24 22  1  0  0  0
 22  1  1  0  0  0
 22 23  1  0  0  0
  1  2  1  0  0  0
  1  6  2  0  0  0
  2  3  2  0  0  0
  3  4  1  0  0  0
  4  5  2  0  0  0
  5  7  1  0  0  0
  5  6  1  0  0  0
  7  8  2  0  0  0
  7 15  1  0  0  0
  8  9  1  0  0  0
  9 10  1  0  0  0
  9 14  2  0  0  0
 10 17  1  0  0  0
 10 11  2  0  0  0
 17 18  1  0  0  0
 17 19  2  0  0  0
 18 20  1  0  0  0
 18 21  1  0  0  0
 11 12  1  0  0  0
 12 13  2  0  0  0
 13 14  1  0  0  0
 14 15  1  0  0  0
 15 16  1  0  0  0
 32 33  1  0  0  0
M  END
> <minimizedAffinity>
-9.68382

$$$$
