CHEMBL1997129


 26 29  0  0  0  0  0  0  0  0999 V2000
  -26.3960   -1.5949  -11.3843 C   0  0  0  0  0  0  0  0  0  0  0  0
  -27.0793   -1.9855  -12.5355 C   0  0  0  0  0  0  0  0  0  0  0  0
  -26.4811   -1.7661  -13.7634 C   0  0  0  0  0  0  0  0  0  0  0  0
  -25.2726   -1.1899  -13.9173 N   0  0  0  0  0  0  0  0  0  0  0  0
  -24.6083   -0.8188  -12.7977 C   0  0  0  0  0  0  0  0  0  0  0  0
  -25.1346   -1.0052  -11.5249 C   0  0  0  0  0  0  0  0  0  0  0  0
  -28.0930    0.0294   -6.2612 O   0  0  0  0  0  0  0  0  0  0  0  0
  -28.2123   -1.1308   -6.6389 C   0  0  0  0  0  0  0  0  0  0  0  0
  -28.7858   -2.0878   -5.8354 N   0  0  0  0  0  0  0  0  0  0  0  0
  -28.9473   -3.5064   -6.1390 C   0  0  0  0  0  0  0  0  0  0  0  0
  -28.5173   -4.0018   -7.5375 C   0  0  0  0  0  0  0  0  0  0  0  0
  -27.9244   -2.9089   -8.3413 C   0  0  0  0  0  0  0  0  0  0  0  0
  -27.4399   -3.0300   -9.6149 N   0  0  0  0  0  0  0  0  0  0  0  0
  -26.9663   -1.8075  -10.0521 C   0  0  0  0  0  0  0  0  0  0  0  0
  -27.1785   -0.9084   -9.0166 C   0  0  0  0  0  0  0  0  0  0  0  0
  -27.7819   -1.6004   -7.9393 C   0  0  0  0  0  0  0  0  0  0  0  0
  -29.0677   -1.7403   -4.9285 H   0  0  0  0  0  0  0  0  0  0  0  0
  -27.4477   -3.8770  -10.1676 H   0  0  0  0  0  0  0  0  0  0  0  0
  -23.2745   -0.2174  -12.9699 C   0  0  0  0  0  0  0  0  0  0  0  0
  -22.9570    0.5636  -14.0155 C   0  0  0  0  0  0  0  0  0  0  0  0
  -21.6439    1.1720  -14.2805 C   0  0  0  0  0  0  0  0  0  0  0  0
  -20.5674    0.4577  -14.8212 C   0  0  0  0  0  0  0  0  0  0  0  0
  -19.3719    1.1084  -15.1429 C   0  0  0  0  0  0  0  0  0  0  0  0
  -19.2418    2.4798  -14.9333 C   0  0  0  0  0  0  0  0  0  0  0  0
  -20.3027    3.2014  -14.3932 C   0  0  0  0  0  0  0  0  0  0  0  0
  -21.4961    2.5510  -14.0711 C   0  0  0  0  0  0  0  0  0  0  0  0
  7  8  2  0  0  0
  8  9  1  0  0  0
  8 16  1  0  0  0
  9 10  1  0  0  0
  9 17  1  0  0  0
 10 11  1  0  0  0
 11 12  1  0  0  0
 12 13  1  0  0  0
 12 16  2  0  0  0
 13 14  1  0  0  0
 13 18  1  0  0  0
 14  1  1  0  0  0
 14 15  2  0  0  0
  1  2  1  0  0  0
  1  6  2  0  0  0
  2  3  2  0  0  0
  3  4  1  0  0  0
  4  5  2  0  0  0
  5 19  1  0  0  0
  5  6  1  0  0  0
 19 20  2  0  0  0
 20 21  1  0  0  0
 21 22  1  0  0  0
 21 26  2  0  0  0
 22 23  2  0  0  0
 23 24  1  0  0  0
 24 25  2  0  0  0
 25 26  1  0  0  0
 15 16  1  0  0  0
M  END
> <minimizedAffinity>
-10.76493

$$$$
