CHEMBL266188


 37 42  0  0  0  0  0  0  0  0999 V2000
  -28.8142   -8.4814   -4.7869 C   0  0  0  0  0  0  0  0  0  0  0  0
  -29.1354   -8.3420   -3.4835 N   0  0  0  0  0  0  0  0  0  0  0  0
  -29.4550   -7.1202   -3.0627 C   0  0  0  0  0  0  0  0  0  0  0  0
  -29.4755   -6.0171   -3.8115 N   0  0  0  0  0  0  0  0  0  0  0  0
  -29.1705   -6.1579   -5.1043 C   0  0  0  0  0  0  0  0  0  0  0  0
  -29.2174   -5.0042   -5.8824 C   0  0  0  0  0  0  0  0  0  0  0  0
  -28.9675   -5.0319   -7.2487 C   0  0  0  0  0  0  0  0  0  0  0  0
  -28.6129   -6.2344   -7.8502 C   0  0  0  0  0  0  0  0  0  0  0  0
  -28.5866   -7.4170   -7.1067 C   0  0  0  0  0  0  0  0  0  0  0  0
  -28.8310   -7.3846   -5.6948 C   0  0  0  0  0  0  0  0  0  0  0  0
  -28.3478   -9.7583   -5.1946 N   0  0  0  0  0  0  0  0  0  0  0  0
  -29.1057  -10.3092   -5.5941 H   0  0  0  0  0  0  0  0  0  0  0  0
  -27.1880  -12.4638   -2.8851 C   0  0  0  0  0  0  0  0  0  0  0  0
  -28.0115  -11.5486   -3.5431 C   0  0  0  0  0  0  0  0  0  0  0  0
  -27.4868  -10.6098   -4.4475 C   0  0  0  0  0  0  0  0  0  0  0  0
  -26.0993  -10.6335   -4.6987 C   0  0  0  0  0  0  0  0  0  0  0  0
  -25.2722  -11.5438   -4.0189 C   0  0  0  0  0  0  0  0  0  0  0  0
  -25.8182  -12.4604   -3.1232 C   0  0  0  0  0  0  0  0  0  0  0  0
  -23.9142  -11.6288   -4.1978 O   0  0  0  0  0  0  0  0  0  0  0  0
  -23.3934  -10.5034   -4.9067 C   0  0  0  0  0  0  0  0  0  0  0  0
  -24.2953  -10.1252   -6.0681 C   0  0  0  0  0  0  0  0  0  0  0  0
  -25.5942   -9.7364   -5.6138 O   0  0  0  0  0  0  0  0  0  0  0  0
  -29.1173   -3.8382   -7.9131 O   0  0  0  0  0  0  0  0  0  0  0  0
  -27.9186   -3.0557   -8.0108 C   0  0  0  0  0  0  0  0  0  0  0  0
  -28.1473   -1.6334   -7.4781 C   0  0  0  0  0  0  0  0  0  0  0  0
  -28.2607   -1.5940   -6.0046 N   0  0  0  0  0  0  0  0  0  0  0  0
  -29.6172   -1.3056   -5.5155 C   0  0  0  0  0  0  0  0  0  0  0  0
  -29.7164    0.2043   -5.5183 C   0  0  0  0  0  0  0  0  0  0  0  0
  -28.3388    0.6271   -5.0472 C   0  0  0  0  0  0  0  0  0  0  0  0
  -27.4154   -0.5259   -5.4357 C   0  0  0  0  0  0  0  0  0  0  0  0
  -28.3455   -8.6443   -7.6785 O   0  0  0  0  0  0  0  0  0  0  0  0
  -28.4057   -8.7961   -9.1118 C   0  0  0  0  0  0  0  0  0  0  0  0
  -29.4177   -9.8734   -9.5218 C   0  0  0  0  0  0  0  0  0  0  0  0
  -29.2287  -10.2987  -10.9709 C   0  0  0  0  0  0  0  0  0  0  0  0
  -27.8825  -10.7013  -11.2049 O   0  0  0  0  0  0  0  0  0  0  0  0
  -26.9657   -9.6290  -11.0093 C   0  0  0  0  0  0  0  0  0  0  0  0
  -26.9908   -9.1662   -9.5637 C   0  0  0  0  0  0  0  0  0  0  0  0
 13 14  1  0  0  0
 13 18  2  0  0  0
 14 15  2  0  0  0
 15 11  1  0  0  0
 15 16  1  0  0  0
 11  1  1  0  0  0
 11 12  1  0  0  0
  1  2  1  0  0  0
  1 10  2  0  0  0
  2  3  2  0  0  0
  3  4  1  0  0  0
  4  5  2  0  0  0
  5  6  1  0  0  0
  5 10  1  0  0  0
  6  7  2  0  0  0
  7 23  1  0  0  0
  7  8  1  0  0  0
 23 24  1  0  0  0
 24 25  1  0  0  0
 25 26  1  0  0  0
 26 27  1  0  0  0
 26 30  1  0  0  0
 27 28  1  0  0  0
 28 29  1  0  0  0
 29 30  1  0  0  0
  8  9  2  0  0  0
  9 31  1  0  0  0
  9 10  1  0  0  0
 31 32  1  0  0  0
 32 33  1  0  0  0
 32 37  1  0  0  0
 33 34  1  0  0  0
 34 35  1  0  0  0
 35 36  1  0  0  0
 36 37  1  0  0  0
 16 17  2  0  0  0
 16 22  1  0  0  0
 17 18  1  0  0  0
 17 19  1  0  0  0
 19 20  1  0  0  0
 20 21  1  0  0  0
 21 22  1  0  0  0
M  END
> <minimizedAffinity>
-8.37788

$$$$
