CHEMBL3923842


 35 38  0  0  0  0  0  0  0  0999 V2000
  -28.2489   -2.2355   -7.9642 C   0  0  0  0  0  0  0  0  0  0  0  0
  -27.7922   -1.8673   -6.6959 C   0  0  0  0  0  0  0  0  0  0  0  0
  -28.0964   -2.6560   -5.5838 C   0  0  0  0  0  0  0  0  0  0  0  0
  -28.7956   -3.8535   -5.7433 C   0  0  0  0  0  0  0  0  0  0  0  0
  -29.2125   -4.2600   -7.0142 C   0  0  0  0  0  0  0  0  0  0  0  0
  -28.9721   -3.4298   -8.1201 C   0  0  0  0  0  0  0  0  0  0  0  0
  -26.8259   -0.8343  -11.0093 N   0  0  0  0  0  0  0  0  0  0  0  0
  -27.0045   -1.7968  -10.0171 C   0  0  0  0  0  0  0  0  0  0  0  0
  -26.4892   -2.9047   -9.9845 O   0  0  0  0  0  0  0  0  0  0  0  0
  -27.9403   -1.3913   -9.0673 N   0  0  0  0  0  0  0  0  0  0  0  0
  -27.3994   -0.0066  -10.9467 H   0  0  0  0  0  0  0  0  0  0  0  0
  -28.7301   -0.9083   -9.4694 H   0  0  0  0  0  0  0  0  0  0  0  0
  -22.4733    0.1809  -13.1936 C   0  0  0  0  0  0  0  0  0  0  0  0
  -23.8491   -0.4249  -13.2406 C   0  0  0  0  0  0  0  0  0  0  0  0
  -24.2931   -1.0185  -14.4252 C   0  0  0  0  0  0  0  0  0  0  0  0
  -25.5503   -1.6048  -14.4747 C   0  0  0  0  0  0  0  0  0  0  0  0
  -26.3795   -1.5901  -13.3564 C   0  0  0  0  0  0  0  0  0  0  0  0
  -27.5137   -2.2887  -13.4656 F   0  0  0  0  0  0  0  0  0  0  0  0
  -25.9989   -0.9553  -12.1642 C   0  0  0  0  0  0  0  0  0  0  0  0
  -24.7035   -0.3986  -12.1143 C   0  0  0  0  0  0  0  0  0  0  0  0
  -29.8287   -5.5514   -7.1654 C   0  0  0  0  0  0  0  0  0  0  0  0
  -30.3126   -6.6351   -7.3446 C   0  0  0  0  0  0  0  0  0  0  0  0
  -30.9319   -7.9168   -7.5458 C   0  0  0  0  0  0  0  0  0  0  0  0
  -32.1801   -8.1867   -6.9645 C   0  0  0  0  0  0  0  0  0  0  0  0
  -32.8258   -9.4029   -7.1841 C   0  0  0  0  0  0  0  0  0  0  0  0
  -32.2542  -10.3844   -7.9978 C   0  0  0  0  0  0  0  0  0  0  0  0
  -31.0024  -10.1024   -8.5587 C   0  0  0  0  0  0  0  0  0  0  0  0
  -30.2018  -10.8467   -9.3798 N   0  0  0  0  0  0  0  0  0  0  0  0
  -29.0430  -10.2571   -9.7026 N   0  0  0  0  0  0  0  0  0  0  0  0
  -29.0959   -9.0866   -9.0698 C   0  0  0  0  0  0  0  0  0  0  0  0
  -28.0823   -8.2179   -9.1250 N   0  0  0  0  0  0  0  0  0  0  0  0
  -30.3134   -8.9036   -8.3483 C   0  0  0  0  0  0  0  0  0  0  0  0
  -30.3850  -11.7701   -9.7482 H   0  0  0  0  0  0  0  0  0  0  0  0
  -27.3121   -8.4113   -9.7512 H   0  0  0  0  0  0  0  0  0  0  0  0
  -28.1440   -7.2743   -8.7676 H   0  0  0  0  0  0  0  0  0  0  0  0
 13 14  1  0  0  0
 14 15  1  0  0  0
 14 20  2  0  0  0
 15 16  2  0  0  0
 16 17  1  0  0  0
 17 18  1  0  0  0
 17 19  2  0  0  0
 19  7  1  0  0  0
 19 20  1  0  0  0
  7  8  1  0  0  0
  7 11  1  0  0  0
  8  9  2  0  0  0
  8 10  1  0  0  0
 10  1  1  0  0  0
 10 12  1  0  0  0
  1  2  1  0  0  0
  1  6  2  0  0  0
  2  3  2  0  0  0
  3  4  1  0  0  0
  4  5  2  0  0  0
  5 21  1  0  0  0
  5  6  1  0  0  0
 21 22  3  0  0  0
 22 23  1  0  0  0
 23 24  1  0  0  0
 23 32  2  0  0  0
 24 25  2  0  0  0
 25 26  1  0  0  0
 26 27  2  0  0  0
 27 28  1  0  0  0
 27 32  1  0  0  0
 28 29  1  0  0  0
 28 33  1  0  0  0
 29 30  2  0  0  0
 30 31  1  0  0  0
 30 32  1  0  0  0
 31 34  1  0  0  0
 31 35  1  0  0  0
M  END
> <minimizedAffinity>
-11.02258

$$$$
