CHEMBL4446068


 31 35  0  0  0  0  0  0  0  0999 V2000
  -28.1096   -7.6140   -5.1724 C   0  0  0  0  0  0  0  0  0  0  0  0
  -27.0953   -8.0721   -4.3559 C   0  0  0  0  0  0  0  0  0  0  0  0
  -27.1890   -9.4427   -4.3114 N   0  0  0  0  0  0  0  0  0  0  0  0
  -28.2531   -9.8862   -5.0140 N   0  0  0  0  0  0  0  0  0  0  0  0
  -28.8326   -8.7943   -5.5341 C   0  0  0  0  0  0  0  0  0  0  0  0
  -26.3177  -10.3463   -3.6433 C   0  0  0  0  0  0  0  0  0  0  0  0
  -24.9660  -10.0286   -3.4420 C   0  0  0  0  0  0  0  0  0  0  0  0
  -24.1284  -10.9220   -2.7719 C   0  0  0  0  0  0  0  0  0  0  0  0
  -24.6286  -12.1371   -2.3095 C   0  0  0  0  0  0  0  0  0  0  0  0
  -25.9673  -12.4653   -2.5166 C   0  0  0  0  0  0  0  0  0  0  0  0
  -26.8132  -11.5734   -3.1790 C   0  0  0  0  0  0  0  0  0  0  0  0
  -30.0508   -8.9246   -6.3478 C   0  0  0  0  0  0  0  0  0  0  0  0
  -30.2691  -10.0450   -7.1624 C   0  0  0  0  0  0  0  0  0  0  0  0
  -31.4526  -10.1818   -7.8908 C   0  0  0  0  0  0  0  0  0  0  0  0
  -32.4189   -9.1810   -7.8419 C   0  0  0  0  0  0  0  0  0  0  0  0
  -32.2004   -8.0424   -7.0688 C   0  0  0  0  0  0  0  0  0  0  0  0
  -31.0232   -7.9146   -6.3261 C   0  0  0  0  0  0  0  0  0  0  0  0
  -28.4059   -5.9761   -6.8012 O   0  0  0  0  0  0  0  0  0  0  0  0
  -28.3359   -6.2425   -5.6072 C   0  0  0  0  0  0  0  0  0  0  0  0
  -28.4074   -5.3193   -4.5874 N   0  0  0  0  0  0  0  0  0  0  0  0
  -28.1207   -5.5659   -3.6539 H   0  0  0  0  0  0  0  0  0  0  0  0
  -28.6409   -3.9787   -4.7642 C   0  0  0  0  0  0  0  0  0  0  0  0
  -27.6835   -3.0918   -4.6493 N   0  0  0  0  0  0  0  0  0  0  0  0
  -28.1904   -1.8318   -4.9310 C   0  0  0  0  0  0  0  0  0  0  0  0
  -27.4482   -0.6353   -5.0114 C   0  0  0  0  0  0  0  0  0  0  0  0
  -28.1050    0.5662   -5.3012 C   0  0  0  0  0  0  0  0  0  0  0  0
  -29.4795    0.5805   -5.4940 C   0  0  0  0  0  0  0  0  0  0  0  0
  -30.0906    1.7424   -5.7592 F   0  0  0  0  0  0  0  0  0  0  0  0
  -30.2425   -0.5807   -5.4241 C   0  0  0  0  0  0  0  0  0  0  0  0
  -29.5695   -1.7801   -5.1526 C   0  0  0  0  0  0  0  0  0  0  0  0
  -30.2059   -3.3664   -5.0394 S   0  0  0  0  0  0  0  0  0  0  0  0
 18 19  2  0  0  0
 19 20  1  0  0  0
 19  1  1  0  0  0
 20 22  1  0  0  0
 20 21  1  0  0  0
 22 23  2  0  0  0
 22 31  1  0  0  0
 23 24  1  0  0  0
 24 25  1  0  0  0
 24 30  2  0  0  0
 25 26  2  0  0  0
 26 27  1  0  0  0
 27 28  1  0  0  0
 27 29  2  0  0  0
 29 30  1  0  0  0
 30 31  1  0  0  0
  1  2  2  0  0  0
  1  5  1  0  0  0
  2  3  1  0  0  0
  3  6  1  0  0  0
  3  4  1  0  0  0
  6  7  1  0  0  0
  6 11  2  0  0  0
  7  8  2  0  0  0
  8  9  1  0  0  0
  9 10  2  0  0  0
 10 11  1  0  0  0
  4  5  2  0  0  0
  5 12  1  0  0  0
 12 13  1  0  0  0
 12 17  2  0  0  0
 13 14  2  0  0  0
 14 15  1  0  0  0
 15 16  2  0  0  0
 16 17  1  0  0  0
M  END
> <minimizedAffinity>
-8.93226

$$$$
