CHEMBL2435999


 48 53  0  0  0  0  0  0  0  0999 V2000
  -23.8678  -11.8366   -3.8055 O   0  0  0  0  0  0  0  0  0  0  0  0
  -26.1060  -11.7338   -7.4392 C   0  0  0  0  0  0  0  0  0  0  0  0
  -25.3849  -11.7045   -6.2383 C   0  0  0  0  0  0  0  0  0  0  0  0
  -23.9907  -11.9588   -6.2029 C   0  0  0  0  0  0  0  0  0  0  0  0
  -23.2212  -11.9993   -5.0150 C   0  0  0  0  0  0  0  0  0  0  0  0
  -21.8406  -12.1524   -5.0801 C   0  0  0  0  0  0  0  0  0  0  0  0
  -21.2829  -12.3866   -6.3156 C   0  0  0  0  0  0  0  0  0  0  0  0
  -21.9875  -12.4242   -7.4648 N   0  0  0  0  0  0  0  0  0  0  0  0
  -23.3093  -12.1974   -7.4115 C   0  0  0  0  0  0  0  0  0  0  0  0
  -24.0278  -12.1734   -8.6000 C   0  0  0  0  0  0  0  0  0  0  0  0
  -25.4008  -11.9044   -8.6414 C   0  0  0  0  0  0  0  0  0  0  0  0
  -28.2642  -12.1242   -6.4490 C   0  0  0  0  0  0  0  0  0  0  0  0
  -27.4664  -11.6058   -7.5050 O   0  0  0  0  0  0  0  0  0  0  0  0
  -25.9119  -11.8449   -9.9214 O   0  0  0  0  0  0  0  0  0  0  0  0
  -26.7061  -10.6892  -10.2004 C   0  0  0  0  0  0  0  0  0  0  0  0
  -28.0244  -11.0640  -10.8639 C   0  0  0  0  0  0  0  0  0  0  0  0
  -29.0540   -9.9809  -10.5224 C   0  0  0  0  0  0  0  0  0  0  0  0
  -29.2561   -9.7381   -9.0925 N   0  0  0  0  0  0  0  0  0  0  0  0
  -28.8399   -8.3907   -8.6718 C   0  0  0  0  0  0  0  0  0  0  0  0
  -29.0593   -8.1959   -7.1529 C   0  0  0  0  0  0  0  0  0  0  0  0
  -30.4474   -8.4035   -6.6943 N   0  0  0  0  0  0  0  0  0  0  0  0
  -31.3083   -7.2866   -7.0721 C   0  0  0  0  0  0  0  0  0  0  0  0
  -30.9479   -9.6874   -7.2283 C   0  0  0  0  0  0  0  0  0  0  0  0
  -30.6801   -9.9299   -8.7343 C   0  0  0  0  0  0  0  0  0  0  0  0
  -24.8389  -10.8645   -3.6782 C   0  0  0  0  0  0  0  0  0  0  0  0
  -24.4145   -9.5583   -3.9066 C   0  0  0  0  0  0  0  0  0  0  0  0
  -25.3354   -8.5041   -3.8944 C   0  0  0  0  0  0  0  0  0  0  0  0
  -26.6980   -8.7328   -3.6716 C   0  0  0  0  0  0  0  0  0  0  0  0
  -27.1147  -10.0338   -3.3822 C   0  0  0  0  0  0  0  0  0  0  0  0
  -26.1950  -11.0892   -3.4232 C   0  0  0  0  0  0  0  0  0  0  0  0
  -26.6642  -12.3319   -3.2350 F   0  0  0  0  0  0  0  0  0  0  0  0
  -27.6742   -7.7159   -3.7764 N   0  0  0  0  0  0  0  0  0  0  0  0
  -29.0407   -7.8893   -3.5989 C   0  0  0  0  0  0  0  0  0  0  0  0
  -29.6150   -8.9543   -3.3913 O   0  0  0  0  0  0  0  0  0  0  0  0
  -27.3705   -6.7456   -3.8260 H   0  0  0  0  0  0  0  0  0  0  0  0
  -29.8513   -6.6285   -3.6184 C   0  0  0  0  0  0  0  0  0  0  0  0
  -29.3173   -5.4944   -4.2331 C   0  0  0  0  0  0  0  0  0  0  0  0
  -30.0518   -4.3029   -4.2635 C   0  0  0  0  0  0  0  0  0  0  0  0
  -31.3171   -4.3386   -3.6601 C   0  0  0  0  0  0  0  0  0  0  0  0
  -31.7793   -5.5177   -3.0807 C   0  0  0  0  0  0  0  0  0  0  0  0
  -31.0801   -6.6722   -3.0416 N   0  0  0  0  0  0  0  0  0  0  0  0
  -29.5171   -3.0742   -4.9048 C   0  0  0  0  0  0  0  0  0  0  0  0
  -29.5541   -1.8278   -4.2536 C   0  0  0  0  0  0  0  0  0  0  0  0
  -29.0542   -0.6645   -4.8553 C   0  0  0  0  0  0  0  0  0  0  0  0
  -28.5081   -0.7075   -6.1385 C   0  0  0  0  0  0  0  0  0  0  0  0
  -27.9907    0.5333   -6.8033 C   0  0  0  0  0  0  0  0  0  0  0  0
  -28.4637   -1.9333   -6.8053 C   0  0  0  0  0  0  0  0  0  0  0  0
  -28.9552   -3.0959   -6.1951 C   0  0  0  0  0  0  0  0  0  0  0  0
 12 13  1  0  0  0
 13  2  1  0  0  0
  2  3  1  0  0  0
  2 11  2  0  0  0
  3  4  2  0  0  0
  4  5  1  0  0  0
  4  9  1  0  0  0
  5  1  1  0  0  0
  5  6  2  0  0  0
  1 25  1  0  0  0
 25 26  1  0  0  0
 25 30  2  0  0  0
 26 27  2  0  0  0
 27 28  1  0  0  0
 28 32  1  0  0  0
 28 29  2  0  0  0
 32 33  1  0  0  0
 32 35  1  0  0  0
 33 34  2  0  0  0
 33 36  1  0  0  0
 36 37  1  0  0  0
 36 41  2  0  0  0
 37 38  2  0  0  0
 38 42  1  0  0  0
 38 39  1  0  0  0
 42 43  1  0  0  0
 42 48  2  0  0  0
 43 44  2  0  0  0
 44 45  1  0  0  0
 45 46  1  0  0  0
 45 47  2  0  0  0
 47 48  1  0  0  0
 39 40  2  0  0  0
 40 41  1  0  0  0
 29 30  1  0  0  0
 30 31  1  0  0  0
  6  7  1  0  0  0
  7  8  2  0  0  0
  8  9  1  0  0  0
  9 10  2  0  0  0
 10 11  1  0  0  0
 11 14  1  0  0  0
 14 15  1  0  0  0
 15 16  1  0  0  0
 16 17  1  0  0  0
 17 18  1  0  0  0
 18 19  1  0  0  0
 18 24  1  0  0  0
 19 20  1  0  0  0
 20 21  1  0  0  0
 21 22  1  0  0  0
 21 23  1  0  0  0
 23 24  1  0  0  0
M  END
> <minimizedAffinity>
-8.67405

$$$$
