CHEMBL3911854


 34 37  0  0  0  0  0  0  0  0999 V2000
  -30.0526   -6.4806   -6.5787 C   0  0  0  0  0  0  0  0  0  0  0  0
  -28.9786   -6.6994   -7.4523 C   0  0  0  0  0  0  0  0  0  0  0  0
  -28.9438   -7.7792   -8.3402 C   0  0  0  0  0  0  0  0  0  0  0  0
  -29.9615   -8.7310   -8.3205 C   0  0  0  0  0  0  0  0  0  0  0  0
  -31.1048   -8.4459   -7.5386 C   0  0  0  0  0  0  0  0  0  0  0  0
  -31.1406   -7.3486   -6.6561 C   0  0  0  0  0  0  0  0  0  0  0  0
  -29.6472  -10.1661   -8.7288 C   0  0  0  0  0  0  0  0  0  0  0  0
  -29.8350  -11.2199   -7.8142 C   0  0  0  0  0  0  0  0  0  0  0  0
  -28.6282  -11.1240   -7.0328 C   0  0  0  0  0  0  0  0  0  0  0  0
  -28.3139  -11.3177   -5.6794 C   0  0  0  0  0  0  0  0  0  0  0  0
  -27.0353  -10.9601   -5.2356 C   0  0  0  0  0  0  0  0  0  0  0  0
  -26.0562  -10.5035   -6.1219 C   0  0  0  0  0  0  0  0  0  0  0  0
  -26.3320  -10.3490   -7.4821 C   0  0  0  0  0  0  0  0  0  0  0  0
  -27.6446  -10.6087   -7.8813 C   0  0  0  0  0  0  0  0  0  0  0  0
  -28.3020  -10.4717   -9.0978 N   0  0  0  0  0  0  0  0  0  0  0  0
  -27.7140  -10.5304  -10.3703 C   0  0  0  0  0  0  0  0  0  0  0  0
  -28.5272  -11.1286  -11.2908 N   0  0  0  0  0  0  0  0  0  0  0  0
  -26.5456  -10.2278  -10.5600 O   0  0  0  0  0  0  0  0  0  0  0  0
  -29.2970  -11.7050  -10.9737 H   0  0  0  0  0  0  0  0  0  0  0  0
  -28.0370  -11.4625  -12.1142 H   0  0  0  0  0  0  0  0  0  0  0  0
  -29.4941   -3.3164   -4.8244 N   0  0  0  0  0  0  0  0  0  0  0  0
  -29.8516   -4.1166   -5.8995 C   0  0  0  0  0  0  0  0  0  0  0  0
  -29.9928   -3.6798   -7.0402 O   0  0  0  0  0  0  0  0  0  0  0  0
  -30.0139   -5.4584   -5.5863 N   0  0  0  0  0  0  0  0  0  0  0  0
  -29.7791   -3.6071   -3.9004 H   0  0  0  0  0  0  0  0  0  0  0  0
  -30.2903   -5.7041   -4.6476 H   0  0  0  0  0  0  0  0  0  0  0  0
  -29.5959    0.3925   -5.2948 C   0  0  0  0  0  0  0  0  0  0  0  0
  -28.2361    0.6922   -5.3975 C   0  0  0  0  0  0  0  0  0  0  0  0
  -27.2922   -0.3182   -5.2619 C   0  0  0  0  0  0  0  0  0  0  0  0
  -27.7052   -1.6323   -5.0466 C   0  0  0  0  0  0  0  0  0  0  0  0
  -29.0647   -1.9677   -4.9859 C   0  0  0  0  0  0  0  0  0  0  0  0
  -30.0058   -0.9371   -5.0789 C   0  0  0  0  0  0  0  0  0  0  0  0
  -30.8894    1.7953   -6.7116 C   0  0  0  0  0  0  0  0  0  0  0  0
  -30.6086    1.3113   -5.4003 O   0  0  0  0  0  0  0  0  0  0  0  0
 33 34  1  0  0  0
 34 27  1  0  0  0
 27 28  1  0  0  0
 27 32  2  0  0  0
 28 29  2  0  0  0
 29 30  1  0  0  0
 30 31  2  0  0  0
 31 21  1  0  0  0
 31 32  1  0  0  0
 21 22  1  0  0  0
 21 25  1  0  0  0
 22 23  2  0  0  0
 22 24  1  0  0  0
 24  1  1  0  0  0
 24 26  1  0  0  0
  1  2  1  0  0  0
  1  6  2  0  0  0
  2  3  2  0  0  0
  3  4  1  0  0  0
  4  7  1  0  0  0
  4  5  2  0  0  0
  7  8  2  0  0  0
  7 15  1  0  0  0
  8  9  1  0  0  0
  9 10  1  0  0  0
  9 14  2  0  0  0
 10 11  2  0  0  0
 11 12  1  0  0  0
 12 13  2  0  0  0
 13 14  1  0  0  0
 14 15  1  0  0  0
 15 16  1  0  0  0
 16 17  1  0  0  0
 16 18  2  0  0  0
 17 19  1  0  0  0
 17 20  1  0  0  0
  5  6  1  0  0  0
M  END
> <minimizedAffinity>
-8.99730

$$$$
