CHEMBL3671534


 38 40  0  0  0  0  0  0  0  0999 V2000
  -13.4721   -3.7606  -14.5418 C   0  0  0  0  0  0  0  0  0  0  0  0
  -13.7628   -2.5033  -15.0727 C   0  0  0  0  0  0  0  0  0  0  0  0
  -13.1959   -1.3439  -14.5047 C   0  0  0  0  0  0  0  0  0  0  0  0
  -13.5477   -0.0321  -14.8571 C   0  0  0  0  0  0  0  0  0  0  0  0
  -12.9826    1.0361  -14.2621 N   0  0  0  0  0  0  0  0  0  0  0  0
  -12.0928    0.7952  -13.3003 C   0  0  0  0  0  0  0  0  0  0  0  0
  -11.7239   -0.4054  -12.8541 N   0  0  0  0  0  0  0  0  0  0  0  0
  -12.2795   -1.4639  -13.4487 C   0  0  0  0  0  0  0  0  0  0  0  0
  -11.9597   -2.7329  -12.9796 C   0  0  0  0  0  0  0  0  0  0  0  0
  -12.5229   -3.8917  -13.5222 C   0  0  0  0  0  0  0  0  0  0  0  0
  -13.8887   -5.7836  -15.8486 C   0  0  0  0  0  0  0  0  0  0  0  0
  -14.4419   -6.8777  -15.9003 O   0  0  0  0  0  0  0  0  0  0  0  0
  -14.2858   -4.8430  -14.9252 N   0  0  0  0  0  0  0  0  0  0  0  0
  -14.7958   -5.3066  -14.1796 H   0  0  0  0  0  0  0  0  0  0  0  0
  -11.6173   -6.1529  -16.6649 C   0  0  0  0  0  0  0  0  0  0  0  0
  -12.7428   -5.4318  -16.7305 C   0  0  0  0  0  0  0  0  0  0  0  0
  -14.5842    0.1930  -15.8042 N   0  0  0  0  0  0  0  0  0  0  0  0
  -14.1994    0.4022  -16.7221 H   0  0  0  0  0  0  0  0  0  0  0  0
  -15.7376    0.9665  -15.5292 C   0  0  0  0  0  0  0  0  0  0  0  0
  -15.9221    2.2218  -16.1271 C   0  0  0  0  0  0  0  0  0  0  0  0
  -17.1143    2.9270  -15.9562 C   0  0  0  0  0  0  0  0  0  0  0  0
  -18.1232    2.3895  -15.1618 C   0  0  0  0  0  0  0  0  0  0  0  0
  -19.7722    3.3004  -15.0128 Br  0  0  0  0  0  0  0  0  0  0  0  0
  -17.9350    1.1791  -14.4988 C   0  0  0  0  0  0  0  0  0  0  0  0
  -16.7413    0.4853  -14.6806 C   0  0  0  0  0  0  0  0  0  0  0  0
  -16.5706   -0.6929  -14.0601 F   0  0  0  0  0  0  0  0  0  0  0  0
  -12.1149   -5.0642  -12.9336 O   0  0  0  0  0  0  0  0  0  0  0  0
  -11.9111   -4.9904  -11.5172 C   0  0  0  0  0  0  0  0  0  0  0  0
  -12.9423   -5.8482  -10.7808 C   0  0  0  0  0  0  0  0  0  0  0  0
  -14.2560   -5.2114  -10.7406 N   0  0  0  0  0  0  0  0  0  0  0  0
  -15.2427   -5.5802  -11.6280 C   0  0  0  0  0  0  0  0  0  0  0  0
  -15.1221   -6.5046  -12.4258 O   0  0  0  0  0  0  0  0  0  0  0  0
  -14.3489   -4.3490  -10.2214 H   0  0  0  0  0  0  0  0  0  0  0  0
  -16.4973   -4.7310  -11.5652 C   0  0  0  0  0  0  0  0  0  0  0  0
  -16.1373   -3.2633  -11.3959 C   0  0  0  0  0  0  0  0  0  0  0  0
  -16.0872   -2.8980   -9.9821 N   0  0  0  0  0  0  0  0  0  0  0  0
  -17.0142   -2.9628   -9.5641 H   0  0  0  0  0  0  0  0  0  0  0  0
  -15.7998   -1.9234   -9.8923 H   0  0  0  0  0  0  0  0  0  0  0  0
 15 16  2  0  0  0
 16 11  1  0  0  0
 11 12  2  0  0  0
 11 13  1  0  0  0
 13  1  1  0  0  0
 13 14  1  0  0  0
  1  2  1  0  0  0
  1 10  2  0  0  0
  2  3  2  0  0  0
  3  4  1  0  0  0
  3  8  1  0  0  0
  4 17  1  0  0  0
  4  5  2  0  0  0
 17 19  1  0  0  0
 17 18  1  0  0  0
 19 20  1  0  0  0
 19 25  2  0  0  0
 20 21  2  0  0  0
 21 22  1  0  0  0
 22 23  1  0  0  0
 22 24  2  0  0  0
 24 25  1  0  0  0
 25 26  1  0  0  0
  5  6  1  0  0  0
  6  7  2  0  0  0
  7  8  1  0  0  0
  8  9  2  0  0  0
  9 10  1  0  0  0
 10 27  1  0  0  0
 27 28  1  0  0  0
 28 29  1  0  0  0
 29 30  1  0  0  0
 30 31  1  0  0  0
 30 33  1  0  0  0
 31 32  2  0  0  0
 31 34  1  0  0  0
 34 35  1  0  0  0
 35 36  1  0  0  0
 36 37  1  0  0  0
 36 38  1  0  0  0
M  END
> <minimizedAffinity>
-7.08909

$$$$
