CHEMBL3321910


 30 34  0  0  0  0  0  0  0  0999 V2000
  -22.8111    0.4839  -14.1279 C   0  0  0  0  0  0  0  0  0  0  0  0
  -22.6322    1.7709  -13.9020 N   0  0  0  0  0  0  0  0  0  0  0  0
  -21.3249    2.0328  -14.2132 C   0  0  0  0  0  0  0  0  0  0  0  0
  -20.6136    3.2301  -14.1209 C   0  0  0  0  0  0  0  0  0  0  0  0
  -19.2678    3.2306  -14.5053 C   0  0  0  0  0  0  0  0  0  0  0  0
  -18.6266    2.0817  -15.0039 C   0  0  0  0  0  0  0  0  0  0  0  0
  -19.3372    0.8693  -15.0650 C   0  0  0  0  0  0  0  0  0  0  0  0
  -20.6815    0.8907  -14.6697 C   0  0  0  0  0  0  0  0  0  0  0  0
  -21.6505   -0.0785  -14.6117 N   0  0  0  0  0  0  0  0  0  0  0  0
  -21.5392   -1.0389  -14.8967 H   0  0  0  0  0  0  0  0  0  0  0  0
  -27.8983   -2.5640  -13.2214 Cl  0  0  0  0  0  0  0  0  0  0  0  0
  -26.4355   -1.6720  -13.4394 C   0  0  0  0  0  0  0  0  0  0  0  0
  -25.9852   -1.4731  -14.7478 C   0  0  0  0  0  0  0  0  0  0  0  0
  -24.8062   -0.7602  -14.9886 C   0  0  0  0  0  0  0  0  0  0  0  0
  -24.0634   -0.2413  -13.9214 C   0  0  0  0  0  0  0  0  0  0  0  0
  -24.5181   -0.4540  -12.6108 C   0  0  0  0  0  0  0  0  0  0  0  0
  -25.7003   -1.1594  -12.3670 C   0  0  0  0  0  0  0  0  0  0  0  0
  -26.1961   -1.3592  -10.7239 Cl  0  0  0  0  0  0  0  0  0  0  0  0
  -17.2439    2.1008  -15.3123 N   0  0  0  0  0  0  0  0  0  0  0  0
  -16.8686    3.0280  -15.4704 H   0  0  0  0  0  0  0  0  0  0  0  0
  -16.2576    1.2732  -14.7161 C   0  0  0  0  0  0  0  0  0  0  0  0
  -16.3859    0.9801  -13.4096 N   0  0  0  0  0  0  0  0  0  0  0  0
  -15.4850    0.1482  -12.8836 C   0  0  0  0  0  0  0  0  0  0  0  0
  -14.4740   -0.4279  -13.5394 N   0  0  0  0  0  0  0  0  0  0  0  0
  -14.3469   -0.1228  -14.8319 C   0  0  0  0  0  0  0  0  0  0  0  0
  -13.3334   -0.7372  -15.5556 C   0  0  0  0  0  0  0  0  0  0  0  0
  -13.1307   -0.4778  -16.9132 C   0  0  0  0  0  0  0  0  0  0  0  0
  -13.9525    0.4271  -17.5717 C   0  0  0  0  0  0  0  0  0  0  0  0
  -14.9877    1.0464  -16.8718 C   0  0  0  0  0  0  0  0  0  0  0  0
  -15.2012    0.7688  -15.4974 C   0  0  0  0  0  0  0  0  0  0  0  0
 11 12  1  0  0  0
 12 13  1  0  0  0
 12 17  2  0  0  0
 13 14  2  0  0  0
 14 15  1  0  0  0
 15  1  1  0  0  0
 15 16  2  0  0  0
  1  2  2  0  0  0
  1  9  1  0  0  0
  2  3  1  0  0  0
  3  4  1  0  0  0
  3  8  2  0  0  0
  4  5  2  0  0  0
  5  6  1  0  0  0
  6 19  1  0  0  0
  6  7  2  0  0  0
 19 21  1  0  0  0
 19 20  1  0  0  0
 21 22  1  0  0  0
 21 30  2  0  0  0
 22 23  2  0  0  0
 23 24  1  0  0  0
 24 25  2  0  0  0
 25 26  1  0  0  0
 25 30  1  0  0  0
 26 27  2  0  0  0
 27 28  1  0  0  0
 28 29  2  0  0  0
 29 30  1  0  0  0
  7  8  1  0  0  0
  8  9  1  0  0  0
  9 10  1  0  0  0
 16 17  1  0  0  0
 17 18  1  0  0  0
M  END
> <minimizedAffinity>
-10.01537

$$$$
