CHEMBL602471


 29 31  0  0  0  0  0  0  0  0999 V2000
  -26.7734   -1.6840   -9.6163 C   0  0  0  0  0  0  0  0  0  0  0  0
  -27.8690   -1.9779  -10.4252 C   0  0  0  0  0  0  0  0  0  0  0  0
  -27.7405   -1.9469  -11.8192 C   0  0  0  0  0  0  0  0  0  0  0  0
  -26.5482   -1.5919  -12.4336 C   0  0  0  0  0  0  0  0  0  0  0  0
  -26.4674   -1.5928  -13.7727 N   0  0  0  0  0  0  0  0  0  0  0  0
  -25.2998   -1.1986  -14.3369 C   0  0  0  0  0  0  0  0  0  0  0  0
  -24.1815   -0.7685  -13.6339 C   0  0  0  0  0  0  0  0  0  0  0  0
  -24.2662   -0.8204  -12.2421 C   0  0  0  0  0  0  0  0  0  0  0  0
  -25.4555   -1.2374  -11.6165 C   0  0  0  0  0  0  0  0  0  0  0  0
  -25.5761   -1.2881  -10.2163 C   0  0  0  0  0  0  0  0  0  0  0  0
  -22.9472   -0.3064  -14.2872 C   0  0  0  0  0  0  0  0  0  0  0  0
  -22.1956    0.6991  -13.8052 C   0  0  0  0  0  0  0  0  0  0  0  0
  -20.9549    1.1149  -14.4950 C   0  0  0  0  0  0  0  0  0  0  0  0
  -20.7214    2.4546  -14.4302 N   0  0  0  0  0  0  0  0  0  0  0  0
  -20.2027    0.3481  -15.0761 O   0  0  0  0  0  0  0  0  0  0  0  0
  -21.3152    3.1146  -13.9571 H   0  0  0  0  0  0  0  0  0  0  0  0
  -19.8863    2.8031  -14.8829 H   0  0  0  0  0  0  0  0  0  0  0  0
  -26.9787   -1.7789   -8.2653 O   0  0  0  0  0  0  0  0  0  0  0  0
  -28.5658   -0.0987   -7.4294 C   0  0  0  0  0  0  0  0  0  0  0  0
  -28.3187   -1.5731   -7.7861 C   0  0  0  0  0  0  0  0  0  0  0  0
  -28.6536   -2.4255   -6.5553 C   0  0  0  0  0  0  0  0  0  0  0  0
  -29.5652   -3.5055   -6.6928 C   0  0  0  0  0  0  0  0  0  0  0  0
  -30.1468   -4.0488   -8.2341 Cl  0  0  0  0  0  0  0  0  0  0  0  0
  -30.0718   -4.1913   -5.5804 C   0  0  0  0  0  0  0  0  0  0  0  0
  -29.6632   -3.8413   -4.3019 C   0  0  0  0  0  0  0  0  0  0  0  0
  -28.7279   -2.8278   -4.1453 C   0  0  0  0  0  0  0  0  0  0  0  0
  -28.3338   -2.5270   -2.8980 F   0  0  0  0  0  0  0  0  0  0  0  0
  -28.2245   -2.1155   -5.2463 C   0  0  0  0  0  0  0  0  0  0  0  0
  -27.1054   -0.8435   -4.8923 Cl  0  0  0  0  0  0  0  0  0  0  0  0
 19 20  1  0  0  0
 20 18  1  0  0  0
 20 21  1  0  0  0
 18  1  1  0  0  0
  1  2  1  0  0  0
  1 10  2  0  0  0
  2  3  2  0  0  0
  3  4  1  0  0  0
  4  5  1  0  0  0
  4  9  2  0  0  0
  5  6  2  0  0  0
  6  7  1  0  0  0
  7 11  1  0  0  0
  7  8  2  0  0  0
 11 12  2  0  0  0
 12 13  1  0  0  0
 13 14  1  0  0  0
 13 15  2  0  0  0
 14 16  1  0  0  0
 14 17  1  0  0  0
  8  9  1  0  0  0
  9 10  1  0  0  0
 21 22  1  0  0  0
 21 28  2  0  0  0
 22 23  1  0  0  0
 22 24  2  0  0  0
 24 25  1  0  0  0
 25 26  2  0  0  0
 26 27  1  0  0  0
 26 28  1  0  0  0
 28 29  1  0  0  0
M  END
> <minimizedAffinity>
-8.95574

$$$$
