CHEMBL427837


 42 47  0  0  0  0  0  0  0  0999 V2000
  -27.1079   -1.9413   -9.5047 C   0  0  0  0  0  0  0  0  0  0  0  0
  -28.1655   -1.5570  -10.3452 C   0  0  0  0  0  0  0  0  0  0  0  0
  -27.9407   -1.2665  -11.6993 C   0  0  0  0  0  0  0  0  0  0  0  0
  -26.6124   -1.2705  -12.1253 C   0  0  0  0  0  0  0  0  0  0  0  0
  -26.0257   -1.1056  -13.3546 N   0  0  0  0  0  0  0  0  0  0  0  0
  -24.6637   -1.0763  -13.1854 C   0  0  0  0  0  0  0  0  0  0  0  0
  -24.3532   -1.3332  -11.9343 N   0  0  0  0  0  0  0  0  0  0  0  0
  -25.5404   -1.4834  -11.2705 C   0  0  0  0  0  0  0  0  0  0  0  0
  -25.7816   -1.8261   -9.9329 C   0  0  0  0  0  0  0  0  0  0  0  0
  -26.5091   -0.9577  -14.2250 H   0  0  0  0  0  0  0  0  0  0  0  0
  -23.8666   -0.7961  -14.2403 N   0  0  0  0  0  0  0  0  0  0  0  0
  -24.0119   -1.2593  -15.1280 H   0  0  0  0  0  0  0  0  0  0  0  0
  -22.8200    0.1499  -14.2617 C   0  0  0  0  0  0  0  0  0  0  0  0
  -22.9861    1.3725  -13.5998 C   0  0  0  0  0  0  0  0  0  0  0  0
  -21.9826    2.3467  -13.6273 C   0  0  0  0  0  0  0  0  0  0  0  0
  -20.7886    2.1149  -14.3135 C   0  0  0  0  0  0  0  0  0  0  0  0
  -19.6258    3.3917  -14.3434 Cl  0  0  0  0  0  0  0  0  0  0  0  0
  -20.5692    0.8840  -14.9439 C   0  0  0  0  0  0  0  0  0  0  0  0
  -21.6033   -0.0719  -14.9216 C   0  0  0  0  0  0  0  0  0  0  0  0
  -19.2605    0.5051  -15.6062 C   0  0  0  0  0  0  0  0  0  0  0  0
  -18.0919    1.0571  -14.9141 N   0  0  0  0  0  0  0  0  0  0  0  0
  -17.2758    0.0419  -14.2282 C   0  0  0  0  0  0  0  0  0  0  0  0
  -16.1114    0.7044  -13.4559 C   0  0  0  0  0  0  0  0  0  0  0  0
  -15.2272    1.5555  -14.2779 N   0  0  0  0  0  0  0  0  0  0  0  0
  -14.3627    0.7521  -15.1375 C   0  0  0  0  0  0  0  0  0  0  0  0
  -16.0571    2.4945  -15.0628 C   0  0  0  0  0  0  0  0  0  0  0  0
  -17.2477    1.8536  -15.8176 C   0  0  0  0  0  0  0  0  0  0  0  0
  -27.2693   -2.4858   -8.2568 O   0  0  0  0  0  0  0  0  0  0  0  0
  -29.9895   -3.2690   -3.8745 C   0  0  0  0  0  0  0  0  0  0  0  0
  -29.8328   -1.8945   -4.1207 C   0  0  0  0  0  0  0  0  0  0  0  0
  -29.1005   -1.3995   -5.1940 C   0  0  0  0  0  0  0  0  0  0  0  0
  -29.1241   -0.0755   -5.4166 N   0  0  0  0  0  0  0  0  0  0  0  0
  -28.5020    0.4001   -6.5133 C   0  0  0  0  0  0  0  0  0  0  0  0
  -27.8790   -0.4026   -7.4440 C   0  0  0  0  0  0  0  0  0  0  0  0
  -27.8588   -1.7764   -7.2215 C   0  0  0  0  0  0  0  0  0  0  0  0
  -28.4163   -2.3025   -6.0227 C   0  0  0  0  0  0  0  0  0  0  0  0
  -28.3810   -3.6572   -5.6118 C   0  0  0  0  0  0  0  0  0  0  0  0
  -29.2245   -4.1662   -4.6164 C   0  0  0  0  0  0  0  0  0  0  0  0
  -31.9735   -4.4865   -3.3873 C   0  0  0  0  0  0  0  0  0  0  0  0
  -30.8470   -3.7435   -2.9184 O   0  0  0  0  0  0  0  0  0  0  0  0
  -29.1812   -5.5308   -4.5826 O   0  0  0  0  0  0  0  0  0  0  0  0
  -28.6560   -6.2601   -5.6773 C   0  0  0  0  0  0  0  0  0  0  0  0
 39 40  1  0  0  0
 40 29  1  0  0  0
 29 30  1  0  0  0
 29 38  2  0  0  0
 30 31  2  0  0  0
 31 32  1  0  0  0
 31 36  1  0  0  0
 32 33  2  0  0  0
 33 34  1  0  0  0
 34 35  2  0  0  0
 35 28  1  0  0  0
 35 36  1  0  0  0
 28  1  1  0  0  0
  1  2  1  0  0  0
  1  9  2  0  0  0
  2  3  2  0  0  0
  3  4  1  0  0  0
  4  5  1  0  0  0
  4  8  2  0  0  0
  5  6  1  0  0  0
  5 10  1  0  0  0
  6 11  1  0  0  0
  6  7  2  0  0  0
 11 13  1  0  0  0
 11 12  1  0  0  0
 13 14  1  0  0  0
 13 19  2  0  0  0
 14 15  2  0  0  0
 15 16  1  0  0  0
 16 17  1  0  0  0
 16 18  2  0  0  0
 18 20  1  0  0  0
 18 19  1  0  0  0
 20 21  1  0  0  0
 21 22  1  0  0  0
 21 27  1  0  0  0
 22 23  1  0  0  0
 23 24  1  0  0  0
 24 25  1  0  0  0
 24 26  1  0  0  0
 26 27  1  0  0  0
  7  8  1  0  0  0
  8  9  1  0  0  0
 36 37  2  0  0  0
 37 38  1  0  0  0
 38 41  1  0  0  0
 41 42  1  0  0  0
M  END
> <minimizedAffinity>
-9.57603

$$$$
