CHEMBL2347053


 27 30  0  0  0  0  0  0  0  0999 V2000
  -31.0226   -7.8248   -7.4473 C   0  0  0  0  0  0  0  0  0  0  0  0
  -32.2486   -7.9585   -6.8406 C   0  0  0  0  0  0  0  0  0  0  0  0
  -32.5257   -9.2897   -6.8689 N   0  0  0  0  0  0  0  0  0  0  0  0
  -31.5311  -10.0348   -7.3699 N   0  0  0  0  0  0  0  0  0  0  0  0
  -30.6164   -9.1509   -7.8045 C   0  0  0  0  0  0  0  0  0  0  0  0
  -33.3598   -9.7646   -6.5395 H   0  0  0  0  0  0  0  0  0  0  0  0
  -30.1189   -7.1945   -4.6359 O   0  0  0  0  0  0  0  0  0  0  0  0
  -29.7121   -6.1976   -5.1966 C   0  0  0  0  0  0  0  0  0  0  0  0
  -29.0406   -5.1375   -4.6092 N   0  0  0  0  0  0  0  0  0  0  0  0
  -28.7095   -4.1612   -5.5422 C   0  0  0  0  0  0  0  0  0  0  0  0
  -28.0438   -2.9783   -5.2940 C   0  0  0  0  0  0  0  0  0  0  0  0
  -27.8254   -2.1275   -6.3786 C   0  0  0  0  0  0  0  0  0  0  0  0
  -28.2767   -2.4737   -7.6662 C   0  0  0  0  0  0  0  0  0  0  0  0
  -28.9481   -3.6825   -7.8951 C   0  0  0  0  0  0  0  0  0  0  0  0
  -29.1531   -4.5270   -6.8174 C   0  0  0  0  0  0  0  0  0  0  0  0
  -29.7997   -5.8356   -6.6570 C   0  0  0  0  0  0  0  0  0  0  0  0
  -30.3580   -6.5779   -7.6225 C   0  0  0  0  0  0  0  0  0  0  0  0
  -28.8370   -5.1107   -3.6225 H   0  0  0  0  0  0  0  0  0  0  0  0
  -29.3939   -9.6315   -8.4647 C   0  0  0  0  0  0  0  0  0  0  0  0
  -29.3603   -9.7838   -9.8623 C   0  0  0  0  0  0  0  0  0  0  0  0
  -28.1850  -10.1468  -10.5332 C   0  0  0  0  0  0  0  0  0  0  0  0
  -27.0025  -10.3443   -9.8265 C   0  0  0  0  0  0  0  0  0  0  0  0
  -27.0022  -10.2165   -8.4412 C   0  0  0  0  0  0  0  0  0  0  0  0
  -28.1953   -9.8812   -7.7754 C   0  0  0  0  0  0  0  0  0  0  0  0
  -28.1338   -9.8703   -6.3243 N   0  0  0  0  0  0  0  0  0  0  0  0
  -28.5048  -10.8968   -5.7370 O   0  0  0  0  0  0  0  0  0  0  0  0
  -27.5721   -8.8991   -5.7937 O   0  0  0  0  0  0  0  0  0  0  0  0
  7  8  2  0  0  0
  8  9  1  0  0  0
  8 16  1  0  0  0
  9 10  1  0  0  0
  9 18  1  0  0  0
 10 11  1  0  0  0
 10 15  2  0  0  0
 11 12  2  0  0  0
 12 13  1  0  0  0
 13 14  2  0  0  0
 14 15  1  0  0  0
 15 16  1  0  0  0
 16 17  2  0  0  0
 17  1  1  0  0  0
  1  2  2  0  0  0
  1  5  1  0  0  0
  2  3  1  0  0  0
  3  4  1  0  0  0
  3  6  1  0  0  0
  4  5  2  0  0  0
  5 19  1  0  0  0
 19 20  1  0  0  0
 19 24  2  0  0  0
 20 21  2  0  0  0
 21 22  1  0  0  0
 22 23  2  0  0  0
 23 24  1  0  0  0
 24 25  1  0  0  0
 25 26  2  0  0  0
 25 27  1  0  0  0
M  CHG 1  25   1
M  CHG 1  27  -1
M  END
> <minimizedAffinity>
-7.99182

$$$$
