CHEMBL3759015


 41 45  0  0  0  0  0  0  0  0999 V2000
  -28.0372   11.4975  -15.6830 C   0  0  0  0  0  0  0  0  0  0  0  0
  -26.7364   11.1088  -15.9895 C   0  0  0  0  0  0  0  0  0  0  0  0
  -25.6615   11.3784  -15.1137 C   0  0  0  0  0  0  0  0  0  0  0  0
  -24.3185   11.1174  -15.4174 C   0  0  0  0  0  0  0  0  0  0  0  0
  -23.3316   11.3748  -14.5430 N   0  0  0  0  0  0  0  0  0  0  0  0
  -23.6830   11.9062  -13.3720 C   0  0  0  0  0  0  0  0  0  0  0  0
  -24.9235   12.2366  -13.0007 N   0  0  0  0  0  0  0  0  0  0  0  0
  -25.9003   11.9820  -13.8771 C   0  0  0  0  0  0  0  0  0  0  0  0
  -27.2073   12.3157  -13.5563 C   0  0  0  0  0  0  0  0  0  0  0  0
  -28.2799   12.0537  -14.4223 C   0  0  0  0  0  0  0  0  0  0  0  0
  -29.4148   10.0559  -17.0204 C   0  0  0  0  0  0  0  0  0  0  0  0
  -29.0809   11.3583  -16.5506 O   0  0  0  0  0  0  0  0  0  0  0  0
  -23.9914   10.6149  -16.7058 N   0  0  0  0  0  0  0  0  0  0  0  0
  -24.1407    9.6122  -16.7327 H   0  0  0  0  0  0  0  0  0  0  0  0
  -22.8918   11.0187  -17.4854 C   0  0  0  0  0  0  0  0  0  0  0  0
  -23.1070   11.6518  -18.7081 C   0  0  0  0  0  0  0  0  0  0  0  0
  -22.0339   11.9624  -19.5401 C   0  0  0  0  0  0  0  0  0  0  0  0
  -20.7193   11.6660  -19.1668 C   0  0  0  0  0  0  0  0  0  0  0  0
  -20.4948   11.1460  -17.8883 C   0  0  0  0  0  0  0  0  0  0  0  0
  -21.5723   10.8406  -17.0543 C   0  0  0  0  0  0  0  0  0  0  0  0
  -19.6005   11.8320  -20.0165 N   0  0  0  0  0  0  0  0  0  0  0  0
  -19.0165   10.8369  -20.7810 C   0  0  0  0  0  0  0  0  0  0  0  0
  -19.4595    9.7033  -20.9427 O   0  0  0  0  0  0  0  0  0  0  0  0
  -19.1807   12.7504  -20.0196 H   0  0  0  0  0  0  0  0  0  0  0  0
  -17.7372   11.1581  -21.4780 C   0  0  0  0  0  0  0  0  0  0  0  0
  -17.4479   12.4116  -22.0342 C   0  0  0  0  0  0  0  0  0  0  0  0
  -16.1838   12.6477  -22.5859 C   0  0  0  0  0  0  0  0  0  0  0  0
  -15.2102   11.6454  -22.5745 C   0  0  0  0  0  0  0  0  0  0  0  0
  -15.5010   10.4028  -22.0163 C   0  0  0  0  0  0  0  0  0  0  0  0
  -14.2979    9.1759  -21.9709 Cl  0  0  0  0  0  0  0  0  0  0  0  0
  -16.7545   10.1572  -21.4742 C   0  0  0  0  0  0  0  0  0  0  0  0
  -29.5023   12.3952  -13.9012 O   0  0  0  0  0  0  0  0  0  0  0  0
  -29.9515   11.6975  -12.7312 C   0  0  0  0  0  0  0  0  0  0  0  0
  -31.0689   10.6796  -12.9939 C   0  0  0  0  0  0  0  0  0  0  0  0
  -32.4501   11.2702  -12.6850 C   0  0  0  0  0  0  0  0  0  0  0  0
  -33.2070   10.5135  -11.6683 N   0  0  0  0  0  0  0  0  0  0  0  0
  -33.2954    9.0802  -12.0490 C   0  0  0  0  0  0  0  0  0  0  0  0
  -34.2630    8.7920  -13.2161 C   0  0  0  0  0  0  0  0  0  0  0  0
  -35.5693    9.3354  -12.9825 O   0  0  0  0  0  0  0  0  0  0  0  0
  -35.4977   10.7375  -12.6974 C   0  0  0  0  0  0  0  0  0  0  0  0
  -34.5965   10.9943  -11.4811 C   0  0  0  0  0  0  0  0  0  0  0  0
 11 12  1  0  0  0
 12  1  1  0  0  0
  1  2  1  0  0  0
  1 10  2  0  0  0
  2  3  2  0  0  0
  3  4  1  0  0  0
  3  8  1  0  0  0
  4 13  1  0  0  0
  4  5  2  0  0  0
 13 15  1  0  0  0
 13 14  1  0  0  0
 15 16  1  0  0  0
 15 20  2  0  0  0
 16 17  2  0  0  0
 17 18  1  0  0  0
 18 21  1  0  0  0
 18 19  2  0  0  0
 21 22  1  0  0  0
 21 24  1  0  0  0
 22 23  2  0  0  0
 22 25  1  0  0  0
 25 26  1  0  0  0
 25 31  2  0  0  0
 26 27  2  0  0  0
 27 28  1  0  0  0
 28 29  2  0  0  0
 29 30  1  0  0  0
 29 31  1  0  0  0
 19 20  1  0  0  0
  5  6  1  0  0  0
  6  7  2  0  0  0
  7  8  1  0  0  0
  8  9  2  0  0  0
  9 10  1  0  0  0
 10 32  1  0  0  0
 32 33  1  0  0  0
 33 34  1  0  0  0
 34 35  1  0  0  0
 35 36  1  0  0  0
 36 37  1  0  0  0
 36 41  1  0  0  0
 37 38  1  0  0  0
 38 39  1  0  0  0
 39 40  1  0  0  0
 40 41  1  0  0  0
M  END
> <minimizedAffinity>
-5.30142

$$$$
