CHEMBL3221267


 36 38  0  0  0  0  0  0  0  0999 V2000
  -28.1308   -1.5262   -7.6022 C   0  0  0  0  0  0  0  0  0  0  0  0
  -27.6381   -0.4319   -6.9593 N   0  0  0  0  0  0  0  0  0  0  0  0
  -27.3268   -0.4674   -5.6265 C   0  0  0  0  0  0  0  0  0  0  0  0
  -27.4976   -1.6065   -4.9064 N   0  0  0  0  0  0  0  0  0  0  0  0
  -27.9847   -2.7283   -5.4979 C   0  0  0  0  0  0  0  0  0  0  0  0
  -28.1406   -3.9076   -4.7465 C   0  0  0  0  0  0  0  0  0  0  0  0
  -28.6429   -5.1243   -5.3324 C   0  0  0  0  0  0  0  0  0  0  0  0
  -28.9991   -5.0310   -6.7434 C   0  0  0  0  0  0  0  0  0  0  0  0
  -28.7908   -3.8531   -7.4334 C   0  0  0  0  0  0  0  0  0  0  0  0
  -28.3123   -2.7051   -6.8568 C   0  0  0  0  0  0  0  0  0  0  0  0
  -28.5060   -1.4196   -8.9870 N   0  0  0  0  0  0  0  0  0  0  0  0
  -29.4884   -1.2242   -9.2475 H   0  0  0  0  0  0  0  0  0  0  0  0
  -25.8877   -1.7613  -12.3107 C   0  0  0  0  0  0  0  0  0  0  0  0
  -25.3704   -1.6155  -10.9926 C   0  0  0  0  0  0  0  0  0  0  0  0
  -26.2155   -1.5241   -9.8891 C   0  0  0  0  0  0  0  0  0  0  0  0
  -27.6017   -1.5680  -10.0644 C   0  0  0  0  0  0  0  0  0  0  0  0
  -28.1164   -1.7234  -11.3438 C   0  0  0  0  0  0  0  0  0  0  0  0
  -27.2844   -1.8129  -12.4766 C   0  0  0  0  0  0  0  0  0  0  0  0
  -27.9528   -2.0402  -13.8160 C   0  0  0  0  0  0  0  0  0  0  0  0
  -24.2166   -0.7106  -13.8340 C   0  0  0  0  0  0  0  0  0  0  0  0
  -23.6913   -0.7234  -14.9223 O   0  0  0  0  0  0  0  0  0  0  0  0
  -25.0162   -1.7815  -13.4396 N   0  0  0  0  0  0  0  0  0  0  0  0
  -24.9911   -2.6037  -14.0575 H   0  0  0  0  0  0  0  0  0  0  0  0
  -23.9967    0.3198  -12.9590 O   0  0  0  0  0  0  0  0  0  0  0  0
  -21.7877    1.0397  -13.4940 C   0  0  0  0  0  0  0  0  0  0  0  0
  -23.2402    1.4350  -13.2445 C   0  0  0  0  0  0  0  0  0  0  0  0
  -29.5196   -5.9263   -7.6203 O   0  0  0  0  0  0  0  0  0  0  0  0
  -30.3762   -6.9654   -7.5524 C   0  0  0  0  0  0  0  0  0  0  0  0
  -28.7206   -6.2571   -4.5208 O   0  0  0  0  0  0  0  0  0  0  0  0
  -27.7472   -7.2644   -4.5825 C   0  0  0  0  0  0  0  0  0  0  0  0
  -27.9622   -8.5738   -5.4012 C   0  0  0  0  0  0  0  0  0  0  0  0
  -26.9035   -9.5926   -5.2106 N   0  0  0  0  0  0  0  0  0  0  0  0
  -25.8005   -9.1650   -4.3276 C   0  0  0  0  0  0  0  0  0  0  0  0
  -24.4160   -9.7640   -4.6099 C   0  0  0  0  0  0  0  0  0  0  0  0
  -27.5330  -10.8767   -4.8133 C   0  0  0  0  0  0  0  0  0  0  0  0
  -28.4936  -10.7655   -3.6122 C   0  0  0  0  0  0  0  0  0  0  0  0
 25 26  1  0  0  0
 26 24  1  0  0  0
 24 20  1  0  0  0
 20 21  2  0  0  0
 20 22  1  0  0  0
 22 13  1  0  0  0
 22 23  1  0  0  0
 13 14  1  0  0  0
 13 18  2  0  0  0
 14 15  2  0  0  0
 15 16  1  0  0  0
 16 11  1  0  0  0
 16 17  2  0  0  0
 11  1  1  0  0  0
 11 12  1  0  0  0
  1  2  1  0  0  0
  1 10  2  0  0  0
  2  3  2  0  0  0
  3  4  1  0  0  0
  4  5  2  0  0  0
  5  6  1  0  0  0
  5 10  1  0  0  0
  6  7  2  0  0  0
  7 29  1  0  0  0
  7  8  1  0  0  0
 29 30  1  0  0  0
 30 31  1  0  0  0
 31 32  1  0  0  0
 32 33  1  0  0  0
 32 35  1  0  0  0
 33 34  1  0  0  0
 35 36  1  0  0  0
  8 27  1  0  0  0
  8  9  2  0  0  0
 27 28  1  0  0  0
  9 10  1  0  0  0
 17 18  1  0  0  0
 18 19  1  0  0  0
M  END
> <minimizedAffinity>
-7.20217

$$$$
