CHEMBL404402


 42 47  0  0  0  0  0  0  0  0999 V2000
  -30.0398   -8.7206   -5.8318 C   0  0  0  0  0  0  0  0  0  0  0  0
  -30.6015   -7.6170   -6.5773 C   0  0  0  0  0  0  0  0  0  0  0  0
  -31.6997   -8.0748   -7.2593 C   0  0  0  0  0  0  0  0  0  0  0  0
  -31.8288   -9.4031   -7.0096 N   0  0  0  0  0  0  0  0  0  0  0  0
  -32.8259  -10.1450   -7.4998 N   0  0  0  0  0  0  0  0  0  0  0  0
  -32.7903  -11.3803   -7.1254 C   0  0  0  0  0  0  0  0  0  0  0  0
  -31.8427  -11.9518   -6.3271 N   0  0  0  0  0  0  0  0  0  0  0  0
  -30.8609  -11.2415   -5.8366 C   0  0  0  0  0  0  0  0  0  0  0  0
  -30.8223   -9.8356   -6.1778 C   0  0  0  0  0  0  0  0  0  0  0  0
  -30.1898   -6.1827   -6.6527 C   0  0  0  0  0  0  0  0  0  0  0  0
  -29.4752   -5.6450   -7.6236 N   0  0  0  0  0  0  0  0  0  0  0  0
  -29.2948   -4.3162   -7.3115 N   0  0  0  0  0  0  0  0  0  0  0  0
  -29.9103   -4.1258   -6.1643 C   0  0  0  0  0  0  0  0  0  0  0  0
  -30.5261   -5.2512   -5.6957 O   0  0  0  0  0  0  0  0  0  0  0  0
  -29.9897   -2.8888   -5.3378 C   0  0  0  0  0  0  0  0  0  0  0  0
  -29.0785   -1.8112   -5.7837 N   0  0  0  0  0  0  0  0  0  0  0  0
  -27.7191   -2.0169   -5.2615 C   0  0  0  0  0  0  0  0  0  0  0  0
  -27.1950   -0.6520   -4.8225 C   0  0  0  0  0  0  0  0  0  0  0  0
  -28.2367    0.3412   -5.3009 C   0  0  0  0  0  0  0  0  0  0  0  0
  -27.8931    0.8079   -6.6019 O   0  0  0  0  0  0  0  0  0  0  0  0
  -29.5222   -0.4788   -5.3287 C   0  0  0  0  0  0  0  0  0  0  0  0
  -28.0395    0.0537   -7.2078 H   0  0  0  0  0  0  0  0  0  0  0  0
  -27.5515   -8.2806   -5.5131 C   0  0  0  0  0  0  0  0  0  0  0  0
  -28.8945   -8.5703   -4.8443 C   0  0  0  0  0  0  0  0  0  0  0  0
  -29.1857   -7.6434   -3.6665 C   0  0  0  0  0  0  0  0  0  0  0  0
  -29.9303  -11.8892   -5.0577 N   0  0  0  0  0  0  0  0  0  0  0  0
  -30.2365  -12.4198   -4.2573 H   0  0  0  0  0  0  0  0  0  0  0  0
  -28.5485  -11.9662   -5.3241 C   0  0  0  0  0  0  0  0  0  0  0  0
  -28.0420  -11.7256   -6.6078 C   0  0  0  0  0  0  0  0  0  0  0  0
  -26.6657  -11.7576   -6.8800 C   0  0  0  0  0  0  0  0  0  0  0  0
  -25.7850  -12.0153   -5.8298 C   0  0  0  0  0  0  0  0  0  0  0  0
  -24.4600  -12.0566   -6.0359 F   0  0  0  0  0  0  0  0  0  0  0  0
  -26.2581  -12.2365   -4.5381 C   0  0  0  0  0  0  0  0  0  0  0  0
  -27.6295  -12.2124   -4.2965 C   0  0  0  0  0  0  0  0  0  0  0  0
  -28.0712  -12.4168   -3.0471 F   0  0  0  0  0  0  0  0  0  0  0  0
  -26.2422  -11.5150   -8.2845 C   0  0  0  0  0  0  0  0  0  0  0  0
  -25.1353  -11.9007   -8.6534 O   0  0  0  0  0  0  0  0  0  0  0  0
  -27.1175  -10.8573   -9.1219 N   0  0  0  0  0  0  0  0  0  0  0  0
  -28.0247  -10.5617   -8.7778 H   0  0  0  0  0  0  0  0  0  0  0  0
  -26.7783  -10.6005  -10.4856 C   0  0  0  0  0  0  0  0  0  0  0  0
  -26.7713   -9.1891  -11.0072 C   0  0  0  0  0  0  0  0  0  0  0  0
  -27.8064  -10.1621  -11.4860 C   0  0  0  0  0  0  0  0  0  0  0  0
 23 24  1  0  0  0
 24 25  1  0  0  0
 24  1  1  0  0  0
  1  2  1  0  0  0
  1  9  2  0  0  0
  2 10  1  0  0  0
  2  3  2  0  0  0
 10 11  2  0  0  0
 10 14  1  0  0  0
 11 12  1  0  0  0
 12 13  2  0  0  0
 13 15  1  0  0  0
 13 14  1  0  0  0
 15 16  1  0  0  0
 16 17  1  0  0  0
 16 21  1  0  0  0
 17 18  1  0  0  0
 18 19  1  0  0  0
 19 20  1  0  0  0
 19 21  1  0  0  0
 20 22  1  0  0  0
  3  4  1  0  0  0
  4  5  1  0  0  0
  4  9  1  0  0  0
  5  6  2  0  0  0
  6  7  1  0  0  0
  7  8  2  0  0  0
  8 26  1  0  0  0
  8  9  1  0  0  0
 26 28  1  0  0  0
 26 27  1  0  0  0
 28 29  1  0  0  0
 28 34  2  0  0  0
 29 30  2  0  0  0
 30 36  1  0  0  0
 30 31  1  0  0  0
 36 37  2  0  0  0
 36 38  1  0  0  0
 38 40  1  0  0  0
 38 39  1  0  0  0
 40 41  1  0  0  0
 40 42  1  0  0  0
 41 42  1  0  0  0
 31 32  1  0  0  0
 31 33  2  0  0  0
 33 34  1  0  0  0
 34 35  1  0  0  0
M  END
> <minimizedAffinity>
-7.45480

$$$$
