CHEMBL3671556


 36 38  0  0  0  0  0  0  0  0999 V2000
  -13.6268   -3.0616  -14.0022 C   0  0  0  0  0  0  0  0  0  0  0  0
  -13.9866   -1.9328  -14.7397 C   0  0  0  0  0  0  0  0  0  0  0  0
  -13.4133   -0.6859  -14.4394 C   0  0  0  0  0  0  0  0  0  0  0  0
  -13.8338    0.5285  -15.0040 C   0  0  0  0  0  0  0  0  0  0  0  0
  -13.2699    1.6992  -14.6554 N   0  0  0  0  0  0  0  0  0  0  0  0
  -12.3089    1.6631  -13.7329 C   0  0  0  0  0  0  0  0  0  0  0  0
  -11.8605    0.5715  -13.1049 N   0  0  0  0  0  0  0  0  0  0  0  0
  -12.4190   -0.5921  -13.4510 C   0  0  0  0  0  0  0  0  0  0  0  0
  -12.0282   -1.7474  -12.7804 C   0  0  0  0  0  0  0  0  0  0  0  0
  -12.6022   -2.9940  -13.0533 C   0  0  0  0  0  0  0  0  0  0  0  0
  -15.6816   -4.2480  -13.4317 C   0  0  0  0  0  0  0  0  0  0  0  0
  -16.5201   -5.0784  -13.7691 O   0  0  0  0  0  0  0  0  0  0  0  0
  -14.4716   -4.1820  -14.0847 N   0  0  0  0  0  0  0  0  0  0  0  0
  -14.5704   -4.6105  -14.9973 H   0  0  0  0  0  0  0  0  0  0  0  0
  -16.2580   -3.6684  -11.1330 C   0  0  0  0  0  0  0  0  0  0  0  0
  -15.9479   -3.2456  -12.3650 C   0  0  0  0  0  0  0  0  0  0  0  0
  -14.9400    0.5480  -15.8957 N   0  0  0  0  0  0  0  0  0  0  0  0
  -14.6334    0.7146  -16.8513 H   0  0  0  0  0  0  0  0  0  0  0  0
  -16.1585    1.2084  -15.6095 C   0  0  0  0  0  0  0  0  0  0  0  0
  -16.4264    2.4804  -16.1349 C   0  0  0  0  0  0  0  0  0  0  0  0
  -17.6825    3.0673  -15.9786 C   0  0  0  0  0  0  0  0  0  0  0  0
  -18.6717    2.3928  -15.2667 C   0  0  0  0  0  0  0  0  0  0  0  0
  -20.4061    3.1362  -15.1601 Br  0  0  0  0  0  0  0  0  0  0  0  0
  -18.4030    1.1647  -14.6658 C   0  0  0  0  0  0  0  0  0  0  0  0
  -17.1459    0.5910  -14.8333 C   0  0  0  0  0  0  0  0  0  0  0  0
  -16.8943   -0.6037  -14.2754 F   0  0  0  0  0  0  0  0  0  0  0  0
  -12.1493   -4.0427  -12.2863 O   0  0  0  0  0  0  0  0  0  0  0  0
  -12.4748   -3.9214  -10.8937 C   0  0  0  0  0  0  0  0  0  0  0  0
  -12.7339   -5.2890  -10.2218 C   0  0  0  0  0  0  0  0  0  0  0  0
  -13.6306   -6.0837  -11.0730 N   0  0  0  0  0  0  0  0  0  0  0  0
  -13.2794   -7.3073  -11.5895 C   0  0  0  0  0  0  0  0  0  0  0  0
  -14.2964   -7.8882  -12.5386 C   0  0  0  0  0  0  0  0  0  0  0  0
  -12.2296   -7.8810  -11.3233 O   0  0  0  0  0  0  0  0  0  0  0  0
  -14.4462   -5.6185  -11.4517 H   0  0  0  0  0  0  0  0  0  0  0  0
  -13.3770   -5.1073   -8.8349 C   0  0  0  0  0  0  0  0  0  0  0  0
  -12.3782   -5.2220   -7.6881 C   0  0  0  0  0  0  0  0  0  0  0  0
 15 16  2  0  0  0
 16 11  1  0  0  0
 11 12  2  0  0  0
 11 13  1  0  0  0
 13  1  1  0  0  0
 13 14  1  0  0  0
  1  2  1  0  0  0
  1 10  2  0  0  0
  2  3  2  0  0  0
  3  4  1  0  0  0
  3  8  1  0  0  0
  4 17  1  0  0  0
  4  5  2  0  0  0
 17 19  1  0  0  0
 17 18  1  0  0  0
 19 20  1  0  0  0
 19 25  2  0  0  0
 20 21  2  0  0  0
 21 22  1  0  0  0
 22 23  1  0  0  0
 22 24  2  0  0  0
 24 25  1  0  0  0
 25 26  1  0  0  0
  5  6  1  0  0  0
  6  7  2  0  0  0
  7  8  1  0  0  0
  8  9  2  0  0  0
  9 10  1  0  0  0
 10 27  1  0  0  0
 27 28  1  0  0  0
 28 29  1  0  0  0
 29 35  1  0  0  0
 29 30  1  0  0  0
 35 36  1  0  0  0
 30 31  1  0  0  0
 30 34  1  0  0  0
 31 32  1  0  0  0
 31 33  2  0  0  0
M  END
> <minimizedAffinity>
-7.58729

$$$$
