CHEMBL3221552


 29 31  0  0  0  0  0  0  0  0999 V2000
  -21.3196    0.3328  -13.1543 N   0  0  0  0  0  0  0  0  0  0  0  0
  -20.5644   -0.1597  -12.6660 H   0  0  0  0  0  0  0  0  0  0  0  0
  -21.0104    1.5359  -13.8737 C   0  0  0  0  0  0  0  0  0  0  0  0
  -21.9781    2.4700  -14.0630 N   0  0  0  0  0  0  0  0  0  0  0  0
  -21.7660    3.6099  -14.7614 C   0  0  0  0  0  0  0  0  0  0  0  0
  -20.5521    3.8510  -15.3083 N   0  0  0  0  0  0  0  0  0  0  0  0
  -19.5413    2.9650  -15.1724 C   0  0  0  0  0  0  0  0  0  0  0  0
  -18.3042    3.2417  -15.7523 C   0  0  0  0  0  0  0  0  0  0  0  0
  -17.2167    2.3493  -15.6430 C   0  0  0  0  0  0  0  0  0  0  0  0
  -17.4106    1.1283  -14.9284 C   0  0  0  0  0  0  0  0  0  0  0  0
  -18.6588    0.8707  -14.3451 C   0  0  0  0  0  0  0  0  0  0  0  0
  -19.7327    1.7630  -14.4537 C   0  0  0  0  0  0  0  0  0  0  0  0
  -16.0156    2.6487  -16.2124 O   0  0  0  0  0  0  0  0  0  0  0  0
  -15.6673    3.8977  -16.7081 C   0  0  0  0  0  0  0  0  0  0  0  0
  -16.4852    0.1553  -14.7287 O   0  0  0  0  0  0  0  0  0  0  0  0
  -15.9165   -0.3212  -13.5745 C   0  0  0  0  0  0  0  0  0  0  0  0
  -25.0970   -1.6078  -13.3712 C   0  0  0  0  0  0  0  0  0  0  0  0
  -24.3662   -1.6498  -12.1794 C   0  0  0  0  0  0  0  0  0  0  0  0
  -23.1291   -1.0250  -12.0879 C   0  0  0  0  0  0  0  0  0  0  0  0
  -22.5792   -0.3472  -13.1952 C   0  0  0  0  0  0  0  0  0  0  0  0
  -23.3006   -0.3407  -14.4016 C   0  0  0  0  0  0  0  0  0  0  0  0
  -24.5628   -0.9463  -14.4943 C   0  0  0  0  0  0  0  0  0  0  0  0
  -25.3335   -0.8777  -15.7828 C   0  0  0  0  0  0  0  0  0  0  0  0
  -27.3623   -1.8891  -12.5473 C   0  0  0  0  0  0  0  0  0  0  0  0
  -28.4550   -2.4284  -12.6486 O   0  0  0  0  0  0  0  0  0  0  0  0
  -26.3756   -2.2149  -13.4188 N   0  0  0  0  0  0  0  0  0  0  0  0
  -26.5525   -2.9214  -14.1489 H   0  0  0  0  0  0  0  0  0  0  0  0
  -27.4773   -1.2181  -10.2325 C   0  0  0  0  0  0  0  0  0  0  0  0
  -27.1258   -0.9983  -11.5474 O   0  0  0  0  0  0  0  0  0  0  0  0
 28 29  1  0  0  0
 29 24  1  0  0  0
 24 25  2  0  0  0
 24 26  1  0  0  0
 26 17  1  0  0  0
 26 27  1  0  0  0
 17 18  1  0  0  0
 17 22  2  0  0  0
 18 19  2  0  0  0
 19 20  1  0  0  0
 20  1  1  0  0  0
 20 21  2  0  0  0
  1  3  1  0  0  0
  1  2  1  0  0  0
  3  4  1  0  0  0
  3 12  2  0  0  0
  4  5  2  0  0  0
  5  6  1  0  0  0
  6  7  2  0  0  0
  7  8  1  0  0  0
  7 12  1  0  0  0
  8  9  2  0  0  0
  9 13  1  0  0  0
  9 10  1  0  0  0
 13 14  1  0  0  0
 10 15  1  0  0  0
 10 11  2  0  0  0
 15 16  1  0  0  0
 11 12  1  0  0  0
 21 22  1  0  0  0
 22 23  1  0  0  0
M  END
> <minimizedAffinity>
-7.60639

$$$$
