CHEMBL2036726


 25 28  0  0  0  0  0  0  0  0999 V2000
  -25.5180   -1.6169  -11.5573 C   0  0  0  0  0  0  0  0  0  0  0  0
  -26.3877   -1.6275  -12.5812 N   0  0  0  0  0  0  0  0  0  0  0  0
  -27.6953   -1.6785  -12.2900 C   0  0  0  0  0  0  0  0  0  0  0  0
  -28.1709   -1.7237  -11.0083 C   0  0  0  0  0  0  0  0  0  0  0  0
  -27.2154   -1.7163  -10.0158 C   0  0  0  0  0  0  0  0  0  0  0  0
  -25.8910   -1.6631  -10.2732 N   0  0  0  0  0  0  0  0  0  0  0  0
  -27.6214   -1.7729   -8.6022 C   0  0  0  0  0  0  0  0  0  0  0  0
  -27.7034   -0.7101   -7.8119 N   0  0  0  0  0  0  0  0  0  0  0  0
  -28.1529   -1.1588   -6.5992 C   0  0  0  0  0  0  0  0  0  0  0  0
  -28.4227   -0.4371   -5.4262 C   0  0  0  0  0  0  0  0  0  0  0  0
  -28.9008   -1.1256   -4.3052 C   0  0  0  0  0  0  0  0  0  0  0  0
  -29.1016   -2.5051   -4.3502 C   0  0  0  0  0  0  0  0  0  0  0  0
  -28.8267   -3.2406   -5.5085 C   0  0  0  0  0  0  0  0  0  0  0  0
  -28.3508   -2.5332   -6.6204 C   0  0  0  0  0  0  0  0  0  0  0  0
  -27.9820   -2.9082   -7.8937 N   0  0  0  0  0  0  0  0  0  0  0  0
  -27.9795   -4.2651   -8.3884 C   0  0  0  0  0  0  0  0  0  0  0  0
  -24.1454   -1.5737  -11.8183 N   0  0  0  0  0  0  0  0  0  0  0  0
  -23.6485   -1.8530  -10.9828 H   0  0  0  0  0  0  0  0  0  0  0  0
  -21.4161    2.5582  -14.6872 C   0  0  0  0  0  0  0  0  0  0  0  0
  -22.1666    1.4652  -13.9880 C   0  0  0  0  0  0  0  0  0  0  0  0
  -21.8351    0.1254  -14.2011 C   0  0  0  0  0  0  0  0  0  0  0  0
  -22.4961   -0.8834  -13.4992 C   0  0  0  0  0  0  0  0  0  0  0  0
  -23.4861   -0.5767  -12.5582 C   0  0  0  0  0  0  0  0  0  0  0  0
  -23.8635    0.7596  -12.3990 C   0  0  0  0  0  0  0  0  0  0  0  0
  -23.1962    1.7753  -13.0919 C   0  0  0  0  0  0  0  0  0  0  0  0
 19 20  1  0  0  0
 20 21  1  0  0  0
 20 25  2  0  0  0
 21 22  2  0  0  0
 22 23  1  0  0  0
 23 17  1  0  0  0
 23 24  2  0  0  0
 17  1  1  0  0  0
 17 18  1  0  0  0
  1  2  1  0  0  0
  1  6  2  0  0  0
  2  3  2  0  0  0
  3  4  1  0  0  0
  4  5  2  0  0  0
  5  7  1  0  0  0
  5  6  1  0  0  0
  7  8  2  0  0  0
  7 15  1  0  0  0
  8  9  1  0  0  0
  9 10  1  0  0  0
  9 14  2  0  0  0
 10 11  2  0  0  0
 11 12  1  0  0  0
 12 13  2  0  0  0
 13 14  1  0  0  0
 14 15  1  0  0  0
 15 16  1  0  0  0
 24 25  1  0  0  0
M  END
> <minimizedAffinity>
-9.01172

$$$$
