CHEMBL195398


 38 41  0  0  0  0  0  0  0  0999 V2000
  -14.9352   -0.2747  -14.0839 C   0  0  0  0  0  0  0  0  0  0  0  0
  -14.3249    0.8805  -14.1034 N   0  0  0  0  0  0  0  0  0  0  0  0
  -13.0556    1.0055  -13.6216 C   0  0  0  0  0  0  0  0  0  0  0  0
  -12.3347    0.0647  -13.1115 N   0  0  0  0  0  0  0  0  0  0  0  0
  -12.9455   -1.1271  -13.0682 N   0  0  0  0  0  0  0  0  0  0  0  0
  -12.3673   -2.2427  -12.5449 C   0  0  0  0  0  0  0  0  0  0  0  0
  -13.2644   -3.2772  -12.6419 C   0  0  0  0  0  0  0  0  0  0  0  0
  -14.4889   -2.7502  -13.2179 C   0  0  0  0  0  0  0  0  0  0  0  0
  -14.2157   -1.4018  -13.5154 C   0  0  0  0  0  0  0  0  0  0  0  0
  -12.9393   -4.6635  -12.1649 C   0  0  0  0  0  0  0  0  0  0  0  0
  -13.2129   -5.1202  -10.9564 N   0  0  0  0  0  0  0  0  0  0  0  0
  -12.7469   -6.4078  -10.8765 N   0  0  0  0  0  0  0  0  0  0  0  0
  -12.2003   -6.6716  -12.0411 C   0  0  0  0  0  0  0  0  0  0  0  0
  -12.3158   -5.6336  -12.9299 O   0  0  0  0  0  0  0  0  0  0  0  0
  -11.5555   -7.9161  -12.4738 C   0  0  0  0  0  0  0  0  0  0  0  0
  -12.8112   -9.0358  -13.0459 S   0  0  0  0  0  0  0  0  0  0  0  0
  -13.1704   -8.5566  -14.7248 C   0  0  0  0  0  0  0  0  0  0  0  0
  -12.1989  -10.3574  -13.1162 O   0  0  0  0  0  0  0  0  0  0  0  0
  -14.0166   -8.8430  -12.2573 O   0  0  0  0  0  0  0  0  0  0  0  0
  -15.7705   -3.5587  -13.3522 C   0  0  0  0  0  0  0  0  0  0  0  0
  -15.6333   -4.7710  -14.2712 C   0  0  0  0  0  0  0  0  0  0  0  0
  -16.4518   -3.9060  -12.0325 C   0  0  0  0  0  0  0  0  0  0  0  0
  -16.1955   -0.3382  -14.6364 N   0  0  0  0  0  0  0  0  0  0  0  0
  -16.6120   -1.2395  -14.7968 H   0  0  0  0  0  0  0  0  0  0  0  0
  -19.1443    1.9650  -14.7076 C   0  0  0  0  0  0  0  0  0  0  0  0
  -18.3141    0.8821  -14.3790 C   0  0  0  0  0  0  0  0  0  0  0  0
  -17.0391    0.7497  -14.9419 C   0  0  0  0  0  0  0  0  0  0  0  0
  -16.6022    1.7666  -15.8065 C   0  0  0  0  0  0  0  0  0  0  0  0
  -15.3867    1.6786  -16.3678 F   0  0  0  0  0  0  0  0  0  0  0  0
  -17.3990    2.8700  -16.1101 C   0  0  0  0  0  0  0  0  0  0  0  0
  -18.6698    2.9609  -15.5573 C   0  0  0  0  0  0  0  0  0  0  0  0
  -19.4357    4.0158  -15.8732 F   0  0  0  0  0  0  0  0  0  0  0  0
  -21.1761    0.7581  -14.1569 N   0  0  0  0  0  0  0  0  0  0  0  0
  -20.5228    1.9694  -14.1698 C   0  0  0  0  0  0  0  0  0  0  0  0
  -21.0086    3.0363  -13.8053 O   0  0  0  0  0  0  0  0  0  0  0  0
  -20.6629   -0.1176  -14.1330 H   0  0  0  0  0  0  0  0  0  0  0  0
  -23.0766   -0.4760  -13.7824 C   0  0  0  0  0  0  0  0  0  0  0  0
  -22.4182    0.7526  -13.4801 O   0  0  0  0  0  0  0  0  0  0  0  0
 37 38  1  0  0  0
 38 33  1  0  0  0
 33 34  1  0  0  0
 33 36  1  0  0  0
 34 35  2  0  0  0
 34 25  1  0  0  0
 25 26  1  0  0  0
 25 31  2  0  0  0
 26 27  2  0  0  0
 27 23  1  0  0  0
 27 28  1  0  0  0
 23  1  1  0  0  0
 23 24  1  0  0  0
  1  2  2  0  0  0
  1  9  1  0  0  0
  2  3  1  0  0  0
  3  4  2  0  0  0
  4  5  1  0  0  0
  5  6  1  0  0  0
  5  9  1  0  0  0
  6  7  2  0  0  0
  7 10  1  0  0  0
  7  8  1  0  0  0
 10 11  2  0  0  0
 10 14  1  0  0  0
 11 12  1  0  0  0
 12 13  2  0  0  0
 13 15  1  0  0  0
 13 14  1  0  0  0
 15 16  1  0  0  0
 16 17  1  0  0  0
 16 18  2  0  0  0
 16 19  2  0  0  0
  8 20  1  0  0  0
  8  9  2  0  0  0
 20 21  1  0  0  0
 20 22  1  0  0  0
 28 29  1  0  0  0
 28 30  2  0  0  0
 30 31  1  0  0  0
 31 32  1  0  0  0
M  END
> <minimizedAffinity>
-8.48733

$$$$
