CHEMBL4205052


 30 33  0  0  0  0  0  0  0  0999 V2000
  -28.6993   -2.5543   -6.0785 C   0  0  0  0  0  0  0  0  0  0  0  0
  -28.9550   -3.4580   -7.1143 C   0  0  0  0  0  0  0  0  0  0  0  0
  -28.5281   -3.1738   -8.4115 C   0  0  0  0  0  0  0  0  0  0  0  0
  -27.9037   -1.9551   -8.6960 C   0  0  0  0  0  0  0  0  0  0  0  0
  -27.7412   -1.0079   -7.6797 C   0  0  0  0  0  0  0  0  0  0  0  0
  -28.1364   -1.3115   -6.3733 C   0  0  0  0  0  0  0  0  0  0  0  0
  -27.4453   -1.6991  -10.0789 C   0  0  0  0  0  0  0  0  0  0  0  0
  -28.0767   -0.9201  -10.9045 N   0  0  0  0  0  0  0  0  0  0  0  0
  -27.3184   -0.8447  -12.0163 N   0  0  0  0  0  0  0  0  0  0  0  0
  -26.2609   -1.8517  -12.0740 C   0  0  0  0  0  0  0  0  0  0  0  0
  -26.2022   -2.3411  -10.6289 C   0  0  0  0  0  0  0  0  0  0  0  0
  -27.8512   -0.7605  -12.8810 H   0  0  0  0  0  0  0  0  0  0  0  0
  -24.9581   -1.2692  -12.5647 C   0  0  0  0  0  0  0  0  0  0  0  0
  -24.7709   -0.9656  -13.9253 C   0  0  0  0  0  0  0  0  0  0  0  0
  -23.5765   -0.4061  -14.3765 C   0  0  0  0  0  0  0  0  0  0  0  0
  -22.5464   -0.1546  -13.4758 C   0  0  0  0  0  0  0  0  0  0  0  0
  -22.7097   -0.4658  -12.1266 C   0  0  0  0  0  0  0  0  0  0  0  0
  -23.9079   -1.0197  -11.6717 C   0  0  0  0  0  0  0  0  0  0  0  0
  -29.0115   -2.7802   -4.7591 O   0  0  0  0  0  0  0  0  0  0  0  0
  -29.4270   -6.3349   -3.9110 C   0  0  0  0  0  0  0  0  0  0  0  0
  -28.7603   -5.1578   -4.2169 C   0  0  0  0  0  0  0  0  0  0  0  0
  -29.5201   -4.0049   -4.3786 C   0  0  0  0  0  0  0  0  0  0  0  0
  -30.8861   -4.0427   -4.1184 C   0  0  0  0  0  0  0  0  0  0  0  0
  -31.4583   -5.2565   -3.7739 C   0  0  0  0  0  0  0  0  0  0  0  0
  -30.7689   -6.4145   -3.6833 N   0  0  0  0  0  0  0  0  0  0  0  0
  -26.6031   -8.7490   -4.6060 C   0  0  0  0  0  0  0  0  0  0  0  0
  -27.4578   -7.5961   -4.5466 N   0  0  0  0  0  0  0  0  0  0  0  0
  -28.6553   -7.6183   -3.8666 C   0  0  0  0  0  0  0  0  0  0  0  0
  -29.0718   -8.5943   -3.2521 O   0  0  0  0  0  0  0  0  0  0  0  0
  -27.2031   -6.7241   -5.0033 H   0  0  0  0  0  0  0  0  0  0  0  0
 26 27  1  0  0  0
 27 28  1  0  0  0
 27 30  1  0  0  0
 28 29  2  0  0  0
 28 20  1  0  0  0
 20 21  1  0  0  0
 20 25  2  0  0  0
 21 22  2  0  0  0
 22 19  1  0  0  0
 22 23  1  0  0  0
 19  1  1  0  0  0
  1  2  1  0  0  0
  1  6  2  0  0  0
  2  3  2  0  0  0
  3  4  1  0  0  0
  4  7  1  0  0  0
  4  5  2  0  0  0
  7  8  2  0  0  0
  7 11  1  0  0  0
  8  9  1  0  0  0
  9 10  1  0  0  0
  9 12  1  0  0  0
 10 13  1  0  0  0
 10 11  1  0  0  0
 13 14  1  0  0  0
 13 18  2  0  0  0
 14 15  2  0  0  0
 15 16  1  0  0  0
 16 17  2  0  0  0
 17 18  1  0  0  0
  5  6  1  0  0  0
 23 24  2  0  0  0
 24 25  1  0  0  0
M  END
> <minimizedAffinity>
-10.08777

$$$$
