CHEMBL595497


 28 30  0  0  0  0  0  0  0  0999 V2000
  -28.6115   -6.1936   -5.6111 C   0  0  0  0  0  0  0  0  0  0  0  0
  -29.0058   -6.9412   -4.5759 C   0  0  0  0  0  0  0  0  0  0  0  0
  -29.3798   -8.2620   -4.8273 O   0  0  0  0  0  0  0  0  0  0  0  0
  -29.3057   -8.3567   -6.1958 C   0  0  0  0  0  0  0  0  0  0  0  0
  -29.6844   -9.4027   -6.8446 N   0  0  0  0  0  0  0  0  0  0  0  0
  -29.5258   -9.2604   -8.1911 C   0  0  0  0  0  0  0  0  0  0  0  0
  -30.0657  -10.1872   -8.9001 N   0  0  0  0  0  0  0  0  0  0  0  0
  -28.8704   -8.1977   -8.7393 N   0  0  0  0  0  0  0  0  0  0  0  0
  -28.5044   -7.0701   -8.0396 C   0  0  0  0  0  0  0  0  0  0  0  0
  -27.9349   -6.0083   -8.7036 N   0  0  0  0  0  0  0  0  0  0  0  0
  -28.7613   -7.0791   -6.7192 C   0  0  0  0  0  0  0  0  0  0  0  0
  -30.5013  -10.8112   -8.2080 H   0  0  0  0  0  0  0  0  0  0  0  0
  -28.7755   -8.1996   -9.7436 H   0  0  0  0  0  0  0  0  0  0  0  0
  -28.2588   -5.9134   -9.6607 H   0  0  0  0  0  0  0  0  0  0  0  0
  -27.9746   -5.1329   -8.1905 H   0  0  0  0  0  0  0  0  0  0  0  0
  -29.2493   -3.7758   -5.3356 C   0  0  0  0  0  0  0  0  0  0  0  0
  -28.3639   -4.7800   -5.5094 C   0  0  0  0  0  0  0  0  0  0  0  0
  -28.7154   -2.4218   -5.6655 C   0  0  0  0  0  0  0  0  0  0  0  0
  -28.9738   -1.4510   -4.6638 C   0  0  0  0  0  0  0  0  0  0  0  0
  -28.6721   -0.0988   -4.8398 C   0  0  0  0  0  0  0  0  0  0  0  0
  -28.0833    0.3190   -6.0211 C   0  0  0  0  0  0  0  0  0  0  0  0
  -27.8185   -0.6183   -7.0197 C   0  0  0  0  0  0  0  0  0  0  0  0
  -28.1383   -1.9845   -6.8704 C   0  0  0  0  0  0  0  0  0  0  0  0
  -27.8952   -2.6682   -8.0281 O   0  0  0  0  0  0  0  0  0  0  0  0
  -27.5657   -1.9794   -9.2178 C   0  0  0  0  0  0  0  0  0  0  0  0
  -30.7414   -3.8192   -5.0157 C   0  0  0  0  0  0  0  0  0  0  0  0
  -32.0195   -5.2853   -3.3417 C   0  0  0  0  0  0  0  0  0  0  0  0
  -31.1510   -4.0560   -3.5544 C   0  0  0  0  0  0  0  0  0  0  0  0
 27 28  1  0  0  0
 28 26  1  0  0  0
 26 16  1  0  0  0
 16 17  2  0  0  0
 16 18  1  0  0  0
 17  1  1  0  0  0
  1  2  2  0  0  0
  1 11  1  0  0  0
  2  3  1  0  0  0
  3  4  1  0  0  0
  4  5  2  0  0  0
  4 11  1  0  0  0
  5  6  1  0  0  0
  6  7  2  0  0  0
  6  8  1  0  0  0
  7 12  1  0  0  0
  8  9  1  0  0  0
  8 13  1  0  0  0
  9 10  1  0  0  0
  9 11  2  0  0  0
 10 14  1  0  0  0
 10 15  1  0  0  0
 18 19  1  0  0  0
 18 23  2  0  0  0
 19 20  2  0  0  0
 20 21  1  0  0  0
 21 22  2  0  0  0
 22 23  1  0  0  0
 23 24  1  0  0  0
 24 25  1  0  0  0
M  END
> <minimizedAffinity>
-8.24298

$$$$
