CHEMBL363042


 22 23  0  0  0  0  0  0  0  0999 V2000
  -29.5150   -6.7134   -7.5657 N   0  0  0  0  0  0  0  0  0  0  0  0
  -29.3694   -7.8783   -8.2681 C   0  0  0  0  0  0  0  0  0  0  0  0
  -30.5456   -8.5473   -8.0805 C   0  0  0  0  0  0  0  0  0  0  0  0
  -30.9370   -9.7673   -8.6141 C   0  0  0  0  0  0  0  0  0  0  0  0
  -30.1930  -10.5779   -9.4479 N   0  0  0  0  0  0  0  0  0  0  0  0
  -32.1882  -10.1326   -8.2437 N   0  0  0  0  0  0  0  0  0  0  0  0
  -32.9025   -9.3099   -7.4016 C   0  0  0  0  0  0  0  0  0  0  0  0
  -32.5784   -8.1077   -6.8478 N   0  0  0  0  0  0  0  0  0  0  0  0
  -31.3364   -7.7324   -7.2292 C   0  0  0  0  0  0  0  0  0  0  0  0
  -30.6934   -6.6048   -6.9093 N   0  0  0  0  0  0  0  0  0  0  0  0
  -29.4449  -10.1363   -9.9622 H   0  0  0  0  0  0  0  0  0  0  0  0
  -30.7586  -11.2593   -9.9411 H   0  0  0  0  0  0  0  0  0  0  0  0
  -28.5782   -5.6017   -7.5720 C   0  0  0  0  0  0  0  0  0  0  0  0
  -29.3222   -4.2728   -7.6266 C   0  0  0  0  0  0  0  0  0  0  0  0
  -28.3710   -3.0844   -7.7188 C   0  0  0  0  0  0  0  0  0  0  0  0
  -28.6424   -2.1126   -6.5718 C   0  0  0  0  0  0  0  0  0  0  0  0
  -27.6137   -2.2631   -5.4572 C   0  0  0  0  0  0  0  0  0  0  0  0
  -28.2592   -2.8456   -4.2024 C   0  0  0  0  0  0  0  0  0  0  0  0
  -27.8671   -4.3088   -4.0179 C   0  0  0  0  0  0  0  0  0  0  0  0
  -29.1043   -5.1945   -3.8955 C   0  0  0  0  0  0  0  0  0  0  0  0
  -31.6137   -5.2390   -3.7898 C   0  0  0  0  0  0  0  0  0  0  0  0
  -30.3810   -4.3581   -3.8990 C   0  0  0  0  0  0  0  0  0  0  0  0
 21 22  1  0  0  0
 22 20  1  0  0  0
 20 19  1  0  0  0
 19 18  1  0  0  0
 18 17  1  0  0  0
 17 16  1  0  0  0
 16 15  1  0  0  0
 15 14  1  0  0  0
 14 13  1  0  0  0
 13  1  1  0  0  0
  1  2  1  0  0  0
  1 10  1  0  0  0
  2  3  2  0  0  0
  3  4  1  0  0  0
  3  9  1  0  0  0
  4  5  1  0  0  0
  4  6  2  0  0  0
  5 11  1  0  0  0
  5 12  1  0  0  0
  6  7  1  0  0  0
  7  8  2  0  0  0
  8  9  1  0  0  0
  9 10  2  0  0  0
M  END
> <minimizedAffinity>
-6.22485

$$$$
