CHEMBL151835


 31 36  0  0  0  0  0  0  0  0999 V2000
  -30.7556   -3.3130   -3.4750 O   0  0  0  0  0  0  0  0  0  0  0  0
  -30.8413   -4.3917   -4.0556 C   0  0  0  0  0  0  0  0  0  0  0  0
  -31.8675   -5.2853   -3.7971 N   0  0  0  0  0  0  0  0  0  0  0  0
  -31.8572   -6.5075   -4.5732 C   0  0  0  0  0  0  0  0  0  0  0  0
  -30.7030   -6.2350   -5.4268 C   0  0  0  0  0  0  0  0  0  0  0  0
  -30.0879   -5.0122   -5.1082 C   0  0  0  0  0  0  0  0  0  0  0  0
  -29.0560   -4.5014   -5.8645 C   0  0  0  0  0  0  0  0  0  0  0  0
  -28.8659   -5.0128   -7.1577 C   0  0  0  0  0  0  0  0  0  0  0  0
  -29.2449   -6.3226   -7.3695 C   0  0  0  0  0  0  0  0  0  0  0  0
  -30.1460   -6.9284   -6.5258 C   0  0  0  0  0  0  0  0  0  0  0  0
  -30.4847   -8.2194   -6.8488 C   0  0  0  0  0  0  0  0  0  0  0  0
  -31.3416   -9.2169   -6.3390 C   0  0  0  0  0  0  0  0  0  0  0  0
  -31.3331  -10.4855   -6.9058 C   0  0  0  0  0  0  0  0  0  0  0  0
  -32.4770  -11.8119   -6.1912 Br  0  0  0  0  0  0  0  0  0  0  0  0
  -30.4887  -10.7781   -7.9658 C   0  0  0  0  0  0  0  0  0  0  0  0
  -29.6343   -9.8022   -8.5039 C   0  0  0  0  0  0  0  0  0  0  0  0
  -29.6366   -8.5108   -7.9370 C   0  0  0  0  0  0  0  0  0  0  0  0
  -28.8804   -7.3409   -8.2339 N   0  0  0  0  0  0  0  0  0  0  0  0
  -28.5045   -3.8631   -8.0775 C   0  0  0  0  0  0  0  0  0  0  0  0
  -28.2151   -2.7420   -7.0752 C   0  0  0  0  0  0  0  0  0  0  0  0
  -27.7962   -1.4273   -7.2504 C   0  0  0  0  0  0  0  0  0  0  0  0
  -27.4658   -0.6556   -6.1227 C   0  0  0  0  0  0  0  0  0  0  0  0
  -27.5423   -1.2180   -4.8311 C   0  0  0  0  0  0  0  0  0  0  0  0
  -28.0467   -2.5092   -4.6559 C   0  0  0  0  0  0  0  0  0  0  0  0
  -28.4513   -3.2177   -5.7803 C   0  0  0  0  0  0  0  0  0  0  0  0
  -32.6148   -5.0068   -3.1788 H   0  0  0  0  0  0  0  0  0  0  0  0
  -27.7737   -7.3272   -9.1813 C   0  0  0  0  0  0  0  0  0  0  0  0
  -26.9414   -8.6114   -9.2985 C   0  0  0  0  0  0  0  0  0  0  0  0
  -27.0354   -9.3273  -10.6386 C   0  0  0  0  0  0  0  0  0  0  0  0
  -26.3802   -8.5716  -11.6475 O   0  0  0  0  0  0  0  0  0  0  0  0
  -27.0382   -7.9664  -12.0313 H   0  0  0  0  0  0  0  0  0  0  0  0
  1  2  2  0  0  0
  2  3  1  0  0  0
  2  6  1  0  0  0
  3  4  1  0  0  0
  3 26  1  0  0  0
  4  5  1  0  0  0
  5  6  1  0  0  0
  5 10  2  0  0  0
  6  7  2  0  0  0
  7  8  1  0  0  0
  7 25  1  0  0  0
  8  9  2  0  0  0
  8 19  1  0  0  0
  9 10  1  0  0  0
  9 18  1  0  0  0
 10 11  1  0  0  0
 11 12  1  0  0  0
 11 17  2  0  0  0
 12 13  2  0  0  0
 13 14  1  0  0  0
 13 15  1  0  0  0
 15 16  2  0  0  0
 16 17  1  0  0  0
 17 18  1  0  0  0
 18 27  1  0  0  0
 27 28  1  0  0  0
 28 29  1  0  0  0
 29 30  1  0  0  0
 30 31  1  0  0  0
 19 20  1  0  0  0
 20 21  1  0  0  0
 20 25  2  0  0  0
 21 22  2  0  0  0
 22 23  1  0  0  0
 23 24  2  0  0  0
 24 25  1  0  0  0
M  END
> <minimizedAffinity>
-8.67968

$$$$
