CHEMBL169473


 24 26  0  0  0  0  0  0  0  0999 V2000
  -17.6039    1.7374  -15.4212 C   0  0  0  0  0  0  0  0  0  0  0  0
  -17.5882    2.7552  -16.3027 N   0  0  0  0  0  0  0  0  0  0  0  0
  -16.4320    3.3977  -16.4767 C   0  0  0  0  0  0  0  0  0  0  0  0
  -15.2835    3.1265  -15.8527 N   0  0  0  0  0  0  0  0  0  0  0  0
  -15.3005    2.1064  -14.9934 C   0  0  0  0  0  0  0  0  0  0  0  0
  -14.0997    1.7869  -14.3736 C   0  0  0  0  0  0  0  0  0  0  0  0
  -13.9642    0.7086  -13.4890 C   0  0  0  0  0  0  0  0  0  0  0  0
  -15.1036   -0.0448  -13.1762 C   0  0  0  0  0  0  0  0  0  0  0  0
  -16.3262    0.2864  -13.7842 C   0  0  0  0  0  0  0  0  0  0  0  0
  -16.4396    1.3527  -14.7146 C   0  0  0  0  0  0  0  0  0  0  0  0
  -18.8105    1.0100  -15.2235 N   0  0  0  0  0  0  0  0  0  0  0  0
  -18.5932    0.1024  -14.8251 H   0  0  0  0  0  0  0  0  0  0  0  0
  -22.3596    0.9456  -14.0693 C   0  0  0  0  0  0  0  0  0  0  0  0
  -22.6298    2.3022  -13.8992 C   0  0  0  0  0  0  0  0  0  0  0  0
  -21.6414    3.2432  -14.1807 C   0  0  0  0  0  0  0  0  0  0  0  0
  -20.3773    2.8346  -14.6190 C   0  0  0  0  0  0  0  0  0  0  0  0
  -20.0636    1.4791  -14.7558 C   0  0  0  0  0  0  0  0  0  0  0  0
  -21.0896    0.5495  -14.5148 C   0  0  0  0  0  0  0  0  0  0  0  0
  -22.9359   -0.9408  -12.7393 C   0  0  0  0  0  0  0  0  0  0  0  0
  -23.2313   -0.0832  -13.8355 O   0  0  0  0  0  0  0  0  0  0  0  0
  -12.7637    0.3691  -12.9234 O   0  0  0  0  0  0  0  0  0  0  0  0
  -11.9220   -0.5318  -13.6363 C   0  0  0  0  0  0  0  0  0  0  0  0
  -15.2161   -1.1187  -12.3336 O   0  0  0  0  0  0  0  0  0  0  0  0
  -15.5712   -2.3834  -12.8756 C   0  0  0  0  0  0  0  0  0  0  0  0
 19 20  1  0  0  0
 20 13  1  0  0  0
 13 14  1  0  0  0
 13 18  2  0  0  0
 14 15  2  0  0  0
 15 16  1  0  0  0
 16 17  2  0  0  0
 17 11  1  0  0  0
 17 18  1  0  0  0
 11  1  1  0  0  0
 11 12  1  0  0  0
  1  2  1  0  0  0
  1 10  2  0  0  0
  2  3  2  0  0  0
  3  4  1  0  0  0
  4  5  2  0  0  0
  5  6  1  0  0  0
  5 10  1  0  0  0
  6  7  2  0  0  0
  7 21  1  0  0  0
  7  8  1  0  0  0
 21 22  1  0  0  0
  8 23  1  0  0  0
  8  9  2  0  0  0
 23 24  1  0  0  0
  9 10  1  0  0  0
M  END
> <minimizedAffinity>
-7.30685

$$$$
