CHEMBL3671499


 35 37  0  0  0  0  0  0  0  0999 V2000
  -29.7773   -4.5437   -5.7302 C   0  0  0  0  0  0  0  0  0  0  0  0
  -29.3423   -3.2444   -5.4276 C   0  0  0  0  0  0  0  0  0  0  0  0
  -28.7192   -2.4304   -6.3641 C   0  0  0  0  0  0  0  0  0  0  0  0
  -28.3423   -1.1965   -6.0119 N   0  0  0  0  0  0  0  0  0  0  0  0
  -27.7987   -0.4413   -6.9694 C   0  0  0  0  0  0  0  0  0  0  0  0
  -27.6107   -0.8005   -8.2424 N   0  0  0  0  0  0  0  0  0  0  0  0
  -27.9853   -2.0465   -8.5876 C   0  0  0  0  0  0  0  0  0  0  0  0
  -28.5359   -2.9333   -7.6553 C   0  0  0  0  0  0  0  0  0  0  0  0
  -28.9669   -4.2367   -7.9694 C   0  0  0  0  0  0  0  0  0  0  0  0
  -29.6153   -5.0428   -7.0351 C   0  0  0  0  0  0  0  0  0  0  0  0
  -30.1817   -6.2731   -7.4488 N   0  0  0  0  0  0  0  0  0  0  0  0
  -29.5659   -7.5055   -7.3544 C   0  0  0  0  0  0  0  0  0  0  0  0
  -28.5130   -7.7458   -6.7768 O   0  0  0  0  0  0  0  0  0  0  0  0
  -31.1083   -6.2308   -7.8474 H   0  0  0  0  0  0  0  0  0  0  0  0
  -30.3462   -8.5913   -8.0058 C   0  0  0  0  0  0  0  0  0  0  0  0
  -31.6158   -8.8000   -7.6305 C   0  0  0  0  0  0  0  0  0  0  0  0
  -27.8974   -2.4268   -9.9534 N   0  0  0  0  0  0  0  0  0  0  0  0
  -28.0183   -3.4303  -10.0715 H   0  0  0  0  0  0  0  0  0  0  0  0
  -26.9658   -1.8750  -10.8589 C   0  0  0  0  0  0  0  0  0  0  0  0
  -25.6819   -1.5163  -10.4245 C   0  0  0  0  0  0  0  0  0  0  0  0
  -24.7014   -1.1305  -11.3359 C   0  0  0  0  0  0  0  0  0  0  0  0
  -25.0109   -1.0744  -12.6928 C   0  0  0  0  0  0  0  0  0  0  0  0
  -23.6478   -0.6720  -13.9376 Br  0  0  0  0  0  0  0  0  0  0  0  0
  -26.3031   -1.3437  -13.1384 C   0  0  0  0  0  0  0  0  0  0  0  0
  -27.2710   -1.7324  -12.2165 C   0  0  0  0  0  0  0  0  0  0  0  0
  -28.5070   -2.0229  -12.6522 F   0  0  0  0  0  0  0  0  0  0  0  0
  -30.3248   -5.1961   -4.6516 O   0  0  0  0  0  0  0  0  0  0  0  0
  -29.4019   -5.6537   -3.6665 C   0  0  0  0  0  0  0  0  0  0  0  0
  -29.4937   -7.1686   -3.4801 C   0  0  0  0  0  0  0  0  0  0  0  0
  -28.0943   -9.1896   -3.6291 C   0  0  0  0  0  0  0  0  0  0  0  0
  -28.9816   -9.9259   -3.2168 O   0  0  0  0  0  0  0  0  0  0  0  0
  -28.2389   -7.8337   -3.8001 N   0  0  0  0  0  0  0  0  0  0  0  0
  -27.4905   -7.2862   -4.2035 H   0  0  0  0  0  0  0  0  0  0  0  0
  -25.6790   -8.9217   -3.8796 C   0  0  0  0  0  0  0  0  0  0  0  0
  -26.7602   -9.6978   -4.0304 C   0  0  0  0  0  0  0  0  0  0  0  0
 34 35  2  0  0  0
 35 30  1  0  0  0
 30 31  2  0  0  0
 30 32  1  0  0  0
 32 29  1  0  0  0
 32 33  1  0  0  0
 29 28  1  0  0  0
 28 27  1  0  0  0
 27  1  1  0  0  0
  1  2  1  0  0  0
  1 10  2  0  0  0
  2  3  2  0  0  0
  3  4  1  0  0  0
  3  8  1  0  0  0
  4  5  2  0  0  0
  5  6  1  0  0  0
  6  7  2  0  0  0
  7 17  1  0  0  0
  7  8  1  0  0  0
 17 19  1  0  0  0
 17 18  1  0  0  0
 19 20  1  0  0  0
 19 25  2  0  0  0
 20 21  2  0  0  0
 21 22  1  0  0  0
 22 23  1  0  0  0
 22 24  2  0  0  0
 24 25  1  0  0  0
 25 26  1  0  0  0
  8  9  2  0  0  0
  9 10  1  0  0  0
 10 11  1  0  0  0
 11 12  1  0  0  0
 11 14  1  0  0  0
 12 13  2  0  0  0
 12 15  1  0  0  0
 15 16  2  0  0  0
M  END
> <minimizedAffinity>
-8.87838

$$$$
