CHEMBL247250


 36 39  0  0  0  0  0  0  0  0999 V2000
  -29.3141   -2.9232   -6.0072 C   0  0  0  0  0  0  0  0  0  0  0  0
  -29.7505   -2.3278   -4.8486 N   0  0  0  0  0  0  0  0  0  0  0  0
  -29.3818   -1.0695   -4.8444 C   0  0  0  0  0  0  0  0  0  0  0  0
  -28.4620   -0.5446   -6.1895 S   0  0  0  0  0  0  0  0  0  0  0  0
  -28.5842   -2.1224   -6.8680 C   0  0  0  0  0  0  0  0  0  0  0  0
  -27.9744   -2.4876   -8.1371 C   0  0  0  0  0  0  0  0  0  0  0  0
  -27.6453   -3.6473   -8.3765 O   0  0  0  0  0  0  0  0  0  0  0  0
  -27.7269   -1.4254   -8.9988 N   0  0  0  0  0  0  0  0  0  0  0  0
  -27.9038   -0.5036   -8.6199 H   0  0  0  0  0  0  0  0  0  0  0  0
  -27.0832   -1.4830  -10.2528 C   0  0  0  0  0  0  0  0  0  0  0  0
  -27.7756   -1.5910  -11.4755 C   0  0  0  0  0  0  0  0  0  0  0  0
  -27.0889   -1.7099  -12.6904 C   0  0  0  0  0  0  0  0  0  0  0  0
  -25.7145   -1.7258  -12.6499 C   0  0  0  0  0  0  0  0  0  0  0  0
  -25.0296   -1.5911  -11.4650 C   0  0  0  0  0  0  0  0  0  0  0  0
  -25.6817   -1.4461  -10.2559 C   0  0  0  0  0  0  0  0  0  0  0  0
  -23.6808   -1.6431  -11.6364 O   0  0  0  0  0  0  0  0  0  0  0  0
  -23.6222   -1.9123  -13.0458 C   0  0  0  0  0  0  0  0  0  0  0  0
  -22.7987   -1.0051  -13.6250 F   0  0  0  0  0  0  0  0  0  0  0  0
  -23.0715   -3.1390  -13.2251 F   0  0  0  0  0  0  0  0  0  0  0  0
  -24.8880   -1.8785  -13.7177 O   0  0  0  0  0  0  0  0  0  0  0  0
  -29.5985   -4.2264   -6.2255 N   0  0  0  0  0  0  0  0  0  0  0  0
  -28.9380   -4.7805   -6.7769 H   0  0  0  0  0  0  0  0  0  0  0  0
  -30.3651   -4.9832   -5.2487 C   0  0  0  0  0  0  0  0  0  0  0  0
  -28.3975   -8.6532   -4.3985 C   0  0  0  0  0  0  0  0  0  0  0  0
  -28.4121   -8.2096   -5.7148 C   0  0  0  0  0  0  0  0  0  0  0  0
  -29.0855   -7.0286   -6.0135 C   0  0  0  0  0  0  0  0  0  0  0  0
  -29.7044   -6.3088   -4.9898 C   0  0  0  0  0  0  0  0  0  0  0  0
  -29.6748   -6.8674   -3.7152 C   0  0  0  0  0  0  0  0  0  0  0  0
  -29.0714   -8.0399   -3.4052 N   0  0  0  0  0  0  0  0  0  0  0  0
  -24.4118  -10.9616   -2.9328 C   0  0  0  0  0  0  0  0  0  0  0  0
  -25.7990  -10.8866   -3.3202 N   0  0  0  0  0  0  0  0  0  0  0  0
  -26.3069   -9.6870   -3.7668 C   0  0  0  0  0  0  0  0  0  0  0  0
  -25.6199   -8.6770   -3.8764 O   0  0  0  0  0  0  0  0  0  0  0  0
  -27.6572   -9.7758   -4.0109 N   0  0  0  0  0  0  0  0  0  0  0  0
  -26.2179  -11.7066   -3.7359 H   0  0  0  0  0  0  0  0  0  0  0  0
  -28.1576  -10.3441   -3.3434 H   0  0  0  0  0  0  0  0  0  0  0  0
 30 31  1  0  0  0
 31 32  1  0  0  0
 31 35  1  0  0  0
 32 33  2  0  0  0
 32 34  1  0  0  0
 34 24  1  0  0  0
 34 36  1  0  0  0
 24 25  1  0  0  0
 24 29  2  0  0  0
 25 26  2  0  0  0
 26 27  1  0  0  0
 27 23  1  0  0  0
 27 28  2  0  0  0
 23 21  1  0  0  0
 21  1  1  0  0  0
 21 22  1  0  0  0
  1  2  1  0  0  0
  1  5  2  0  0  0
  2  3  2  0  0  0
  3  4  1  0  0  0
  4  5  1  0  0  0
  5  6  1  0  0  0
  6  7  2  0  0  0
  6  8  1  0  0  0
  8 10  1  0  0  0
  8  9  1  0  0  0
 10 11  1  0  0  0
 10 15  2  0  0  0
 11 12  2  0  0  0
 12 13  1  0  0  0
 13 14  2  0  0  0
 13 20  1  0  0  0
 14 15  1  0  0  0
 14 16  1  0  0  0
 16 17  1  0  0  0
 17 18  1  0  0  0
 17 19  1  0  0  0
 17 20  1  0  0  0
 28 29  1  0  0  0
M  END
> <minimizedAffinity>
-9.28406

$$$$
