CHEMBL3093581


 41 46  0  0  0  0  0  0  0  0999 V2000
  -19.1434    2.0460  -15.0791 C   0  0  0  0  0  0  0  0  0  0  0  0
  -19.7903    0.8164  -15.2259 C   0  0  0  0  0  0  0  0  0  0  0  0
  -21.1366    0.6712  -14.8853 C   0  0  0  0  0  0  0  0  0  0  0  0
  -21.8586    1.7561  -14.3964 C   0  0  0  0  0  0  0  0  0  0  0  0
  -21.1906    2.9589  -14.1637 C   0  0  0  0  0  0  0  0  0  0  0  0
  -21.8274    4.0046  -13.6174 F   0  0  0  0  0  0  0  0  0  0  0  0
  -19.8471    3.1124  -14.5120 C   0  0  0  0  0  0  0  0  0  0  0  0
  -16.6556    0.9724  -13.9515 O   0  0  0  0  0  0  0  0  0  0  0  0
  -16.6736    1.7247  -14.9249 C   0  0  0  0  0  0  0  0  0  0  0  0
  -17.8134    2.2729  -15.4862 N   0  0  0  0  0  0  0  0  0  0  0  0
  -17.6826    2.8272  -16.3342 H   0  0  0  0  0  0  0  0  0  0  0  0
  -15.3937    2.0367  -15.6366 C   0  0  0  0  0  0  0  0  0  0  0  0
  -14.6377    0.9958  -16.0320 C   0  0  0  0  0  0  0  0  0  0  0  0
  -13.4561    1.1838  -16.8299 C   0  0  0  0  0  0  0  0  0  0  0  0
  -13.0873    2.4159  -17.1925 C   0  0  0  0  0  0  0  0  0  0  0  0
  -13.7857    3.5352  -16.7633 N   0  0  0  0  0  0  0  0  0  0  0  0
  -14.9472    3.4244  -15.9752 C   0  0  0  0  0  0  0  0  0  0  0  0
  -15.6321    4.3781  -15.5955 O   0  0  0  0  0  0  0  0  0  0  0  0
  -13.3252    4.8408  -17.0974 C   0  0  0  0  0  0  0  0  0  0  0  0
  -12.4436    5.5108  -16.2400 C   0  0  0  0  0  0  0  0  0  0  0  0
  -11.9864    6.7884  -16.5602 C   0  0  0  0  0  0  0  0  0  0  0  0
  -12.4326    7.4150  -17.7223 C   0  0  0  0  0  0  0  0  0  0  0  0
  -13.3156    6.7556  -18.5781 C   0  0  0  0  0  0  0  0  0  0  0  0
  -13.7449    5.4607  -18.2801 C   0  0  0  0  0  0  0  0  0  0  0  0
  -23.1720    1.5023  -14.0984 O   0  0  0  0  0  0  0  0  0  0  0  0
  -23.5657    0.5271  -13.1934 C   0  0  0  0  0  0  0  0  0  0  0  0
  -22.6034   -0.3251  -12.4936 C   0  0  0  0  0  0  0  0  0  0  0  0
  -23.0081   -1.3003  -11.6558 C   0  0  0  0  0  0  0  0  0  0  0  0
  -24.3911   -1.4735  -11.3919 C   0  0  0  0  0  0  0  0  0  0  0  0
  -25.0279   -2.3336  -10.6323 N   0  0  0  0  0  0  0  0  0  0  0  0
  -26.3456   -1.9975  -10.7157 C   0  0  0  0  0  0  0  0  0  0  0  0
  -26.5263   -0.9035  -11.5314 C   0  0  0  0  0  0  0  0  0  0  0  0
  -25.2729   -0.5830  -11.9911 N   0  0  0  0  0  0  0  0  0  0  0  0
  -24.8695    0.4023  -12.8851 C   0  0  0  0  0  0  0  0  0  0  0  0
  -27.3471   -2.6615  -10.0501 N   0  0  0  0  0  0  0  0  0  0  0  0
  -27.7527   -2.3506   -8.7707 C   0  0  0  0  0  0  0  0  0  0  0  0
  -27.2998   -1.5001   -8.0192 O   0  0  0  0  0  0  0  0  0  0  0  0
  -27.8028   -3.4120  -10.5441 H   0  0  0  0  0  0  0  0  0  0  0  0
  -28.9123   -3.1822   -8.3156 C   0  0  0  0  0  0  0  0  0  0  0  0
  -29.1506   -3.3439   -6.8308 C   0  0  0  0  0  0  0  0  0  0  0  0
  -28.6892   -4.5187   -7.6425 C   0  0  0  0  0  0  0  0  0  0  0  0
  8  9  2  0  0  0
  9 10  1  0  0  0
  9 12  1  0  0  0
 10  1  1  0  0  0
 10 11  1  0  0  0
  1  2  1  0  0  0
  1  7  2  0  0  0
  2  3  2  0  0  0
  3  4  1  0  0  0
  4 25  1  0  0  0
  4  5  2  0  0  0
 25 26  1  0  0  0
 26 27  1  0  0  0
 26 34  2  0  0  0
 27 28  2  0  0  0
 28 29  1  0  0  0
 29 30  2  0  0  0
 29 33  1  0  0  0
 30 31  1  0  0  0
 31 35  1  0  0  0
 31 32  2  0  0  0
 35 36  1  0  0  0
 35 38  1  0  0  0
 36 37  2  0  0  0
 36 39  1  0  0  0
 39 40  1  0  0  0
 39 41  1  0  0  0
 40 41  1  0  0  0
 32 33  1  0  0  0
 33 34  1  0  0  0
  5  6  1  0  0  0
  5  7  1  0  0  0
 12 13  2  0  0  0
 12 17  1  0  0  0
 13 14  1  0  0  0
 14 15  2  0  0  0
 15 16  1  0  0  0
 16 19  1  0  0  0
 16 17  1  0  0  0
 19 20  1  0  0  0
 19 24  2  0  0  0
 20 21  2  0  0  0
 21 22  1  0  0  0
 22 23  2  0  0  0
 23 24  1  0  0  0
 17 18  2  0  0  0
M  END
> <minimizedAffinity>
-9.90667

$$$$
