CHEMBL4750711


 33 36  0  0  0  0  0  0  0  0999 V2000
  -23.1642   -0.6346  -12.9947 C   0  0  0  0  0  0  0  0  0  0  0  0
  -23.9517    0.3028  -12.3291 C   0  0  0  0  0  0  0  0  0  0  0  0
  -24.8831   -0.1089  -11.3717 C   0  0  0  0  0  0  0  0  0  0  0  0
  -25.0530   -1.4641  -11.0746 C   0  0  0  0  0  0  0  0  0  0  0  0
  -24.3497   -2.4088  -11.8229 C   0  0  0  0  0  0  0  0  0  0  0  0
  -23.4306   -1.9943  -12.7835 C   0  0  0  0  0  0  0  0  0  0  0  0
  -25.8808   -1.9487  -10.0446 N   0  0  0  0  0  0  0  0  0  0  0  0
  -27.2368   -1.7508   -9.9059 C   0  0  0  0  0  0  0  0  0  0  0  0
  -27.9424   -1.0890  -10.6624 O   0  0  0  0  0  0  0  0  0  0  0  0
  -25.4178   -2.4879   -9.3225 H   0  0  0  0  0  0  0  0  0  0  0  0
  -27.9003   -2.3527   -8.7101 C   0  0  0  0  0  0  0  0  0  0  0  0
  -28.0693   -3.7521   -8.7813 C   0  0  0  0  0  0  0  0  0  0  0  0
  -28.5652   -4.4814   -7.7020 C   0  0  0  0  0  0  0  0  0  0  0  0
  -28.9080   -3.8221   -6.5297 C   0  0  0  0  0  0  0  0  0  0  0  0
  -28.7797   -2.4347   -6.4486 C   0  0  0  0  0  0  0  0  0  0  0  0
  -28.2809   -1.6904   -7.5320 C   0  0  0  0  0  0  0  0  0  0  0  0
  -28.1179    0.3760   -7.1759 I   0  0  0  0  0  0  0  0  0  0  0  0
  -22.1435   -0.2170  -13.8734 N   0  0  0  0  0  0  0  0  0  0  0  0
  -22.1207   -0.7561  -14.7325 H   0  0  0  0  0  0  0  0  0  0  0  0
  -17.9817    2.4090  -15.2561 C   0  0  0  0  0  0  0  0  0  0  0  0
  -19.0367    3.2995  -15.0066 C   0  0  0  0  0  0  0  0  0  0  0  0
  -20.3071    2.8670  -14.6716 C   0  0  0  0  0  0  0  0  0  0  0  0
  -21.2634    3.7881  -14.5344 N   0  0  0  0  0  0  0  0  0  0  0  0
  -22.4817    3.3380  -14.2339 C   0  0  0  0  0  0  0  0  0  0  0  0
  -22.8123    2.0643  -14.0303 N   0  0  0  0  0  0  0  0  0  0  0  0
  -21.8356    1.1423  -14.1502 C   0  0  0  0  0  0  0  0  0  0  0  0
  -20.5286    1.4963  -14.5102 C   0  0  0  0  0  0  0  0  0  0  0  0
  -19.4561    0.5922  -14.6904 C   0  0  0  0  0  0  0  0  0  0  0  0
  -18.1837    1.0421  -15.0465 C   0  0  0  0  0  0  0  0  0  0  0  0
  -16.6549    4.2528  -15.8909 C   0  0  0  0  0  0  0  0  0  0  0  0
  -16.7661    2.8384  -15.7241 O   0  0  0  0  0  0  0  0  0  0  0  0
  -17.2784    0.0339  -15.2306 O   0  0  0  0  0  0  0  0  0  0  0  0
  -16.3225   -0.1562  -14.1936 C   0  0  0  0  0  0  0  0  0  0  0  0
 30 31  1  0  0  0
 31 20  1  0  0  0
 20 21  1  0  0  0
 20 29  2  0  0  0
 21 22  2  0  0  0
 22 23  1  0  0  0
 22 27  1  0  0  0
 23 24  2  0  0  0
 24 25  1  0  0  0
 25 26  2  0  0  0
 26 18  1  0  0  0
 26 27  1  0  0  0
 18  1  1  0  0  0
 18 19  1  0  0  0
  1  2  1  0  0  0
  1  6  2  0  0  0
  2  3  2  0  0  0
  3  4  1  0  0  0
  4  7  1  0  0  0
  4  5  2  0  0  0
  7  8  1  0  0  0
  7 10  1  0  0  0
  8  9  2  0  0  0
  8 11  1  0  0  0
 11 12  1  0  0  0
 11 16  2  0  0  0
 12 13  2  0  0  0
 13 14  1  0  0  0
 14 15  2  0  0  0
 15 16  1  0  0  0
 16 17  1  0  0  0
  5  6  1  0  0  0
 27 28  2  0  0  0
 28 29  1  0  0  0
 29 32  1  0  0  0
 32 33  1  0  0  0
M  END
> <minimizedAffinity>
-8.78492

$$$$
