CHEMBL214161


 40 45  0  0  0  0  0  0  0  0999 V2000
  -28.4170   -5.0095   -4.5336 C   0  0  0  0  0  0  0  0  0  0  0  0
  -27.3752   -5.8246   -4.3002 N   0  0  0  0  0  0  0  0  0  0  0  0
  -27.9359   -7.0167   -3.9622 N   0  0  0  0  0  0  0  0  0  0  0  0
  -29.3071   -7.0222   -4.0238 C   0  0  0  0  0  0  0  0  0  0  0  0
  -29.6292   -5.6574   -4.1465 C   0  0  0  0  0  0  0  0  0  0  0  0
  -30.9758   -5.4816   -4.7529 C   0  0  0  0  0  0  0  0  0  0  0  0
  -30.7377   -6.6468   -5.6914 C   0  0  0  0  0  0  0  0  0  0  0  0
  -30.3319   -6.4827   -7.0123 C   0  0  0  0  0  0  0  0  0  0  0  0
  -29.8443   -7.5902   -7.7022 C   0  0  0  0  0  0  0  0  0  0  0  0
  -29.9584   -8.8535   -7.1046 C   0  0  0  0  0  0  0  0  0  0  0  0
  -29.9672   -8.9375   -5.7062 C   0  0  0  0  0  0  0  0  0  0  0  0
  -30.1822   -7.7500   -5.0016 C   0  0  0  0  0  0  0  0  0  0  0  0
  -27.3151   -7.8078   -3.8335 H   0  0  0  0  0  0  0  0  0  0  0  0
  -28.3490   -2.2245   -7.4281 C   0  0  0  0  0  0  0  0  0  0  0  0
  -28.3857   -1.5678   -6.2138 C   0  0  0  0  0  0  0  0  0  0  0  0
  -28.3992   -2.4712   -5.0950 C   0  0  0  0  0  0  0  0  0  0  0  0
  -28.3498   -3.8020   -5.4741 C   0  0  0  0  0  0  0  0  0  0  0  0
  -28.3543   -3.9339   -7.1858 S   0  0  0  0  0  0  0  0  0  0  0  0
  -28.1034   -1.6698   -8.8064 C   0  0  0  0  0  0  0  0  0  0  0  0
  -25.4734   -1.9577  -11.3027 N   0  0  0  0  0  0  0  0  0  0  0  0
  -26.6726   -1.5774  -10.7321 C   0  0  0  0  0  0  0  0  0  0  0  0
  -27.4938   -0.8095  -11.2316 O   0  0  0  0  0  0  0  0  0  0  0  0
  -26.9150   -2.1688   -9.4881 N   0  0  0  0  0  0  0  0  0  0  0  0
  -24.9770   -2.7169  -10.8612 H   0  0  0  0  0  0  0  0  0  0  0  0
  -26.1010   -2.3426   -8.9186 H   0  0  0  0  0  0  0  0  0  0  0  0
  -21.8830    0.5584  -13.6427 C   0  0  0  0  0  0  0  0  0  0  0  0
  -23.1624   -0.2273  -13.6914 C   0  0  0  0  0  0  0  0  0  0  0  0
  -23.8006   -0.4335  -14.9143 C   0  0  0  0  0  0  0  0  0  0  0  0
  -24.9913   -1.1572  -14.9568 C   0  0  0  0  0  0  0  0  0  0  0  0
  -25.5556   -1.6657  -13.7794 C   0  0  0  0  0  0  0  0  0  0  0  0
  -24.9420   -1.4775  -12.5396 C   0  0  0  0  0  0  0  0  0  0  0  0
  -23.7363   -0.7469  -12.5110 C   0  0  0  0  0  0  0  0  0  0  0  0
  -30.4114   -9.9794   -8.0226 C   0  0  0  0  0  0  0  0  0  0  0  0
  -29.2898  -10.5060   -8.8353 N   0  0  0  0  0  0  0  0  0  0  0  0
  -29.4328  -10.2983  -10.2951 C   0  0  0  0  0  0  0  0  0  0  0  0
  -28.2879  -10.9687  -11.0802 C   0  0  0  0  0  0  0  0  0  0  0  0
  -26.9450  -10.4894  -10.7181 N   0  0  0  0  0  0  0  0  0  0  0  0
  -26.6860   -9.1656  -11.2768 C   0  0  0  0  0  0  0  0  0  0  0  0
  -26.8058  -10.5173   -9.2465 C   0  0  0  0  0  0  0  0  0  0  0  0
  -27.9962   -9.9233   -8.4311 C   0  0  0  0  0  0  0  0  0  0  0  0
 26 27  1  0  0  0
 27 28  1  0  0  0
 27 32  2  0  0  0
 28 29  2  0  0  0
 29 30  1  0  0  0
 30 31  2  0  0  0
 31 20  1  0  0  0
 31 32  1  0  0  0
 20 21  1  0  0  0
 20 24  1  0  0  0
 21 22  2  0  0  0
 21 23  1  0  0  0
 23 19  1  0  0  0
 23 25  1  0  0  0
 19 14  1  0  0  0
 14 15  2  0  0  0
 14 18  1  0  0  0
 15 16  1  0  0  0
 16 17  2  0  0  0
 17  1  1  0  0  0
 17 18  1  0  0  0
  1  2  2  0  0  0
  1  5  1  0  0  0
  2  3  1  0  0  0
  3  4  1  0  0  0
  3 13  1  0  0  0
  4  5  2  0  0  0
  4 12  1  0  0  0
  5  6  1  0  0  0
  6  7  1  0  0  0
  7  8  1  0  0  0
  7 12  2  0  0  0
  8  9  2  0  0  0
  9 10  1  0  0  0
 10 33  1  0  0  0
 10 11  2  0  0  0
 33 34  1  0  0  0
 34 35  1  0  0  0
 34 40  1  0  0  0
 35 36  1  0  0  0
 36 37  1  0  0  0
 37 38  1  0  0  0
 37 39  1  0  0  0
 39 40  1  0  0  0
 11 12  1  0  0  0
M  END
> <minimizedAffinity>
-10.48379

$$$$
