CHEMBL3753854


 34 38  0  0  0  0  0  0  0  0999 V2000
  -25.6929   -1.8430  -12.4843 N   0  0  0  0  0  0  0  0  0  0  0  0
  -27.1733   -1.9631  -12.3473 C   0  0  0  0  0  0  0  0  0  0  0  0
  -27.8319   -1.2201  -11.1517 C   0  0  0  0  0  0  0  0  0  0  0  0
  -27.1259   -1.5753   -9.9269 N   0  0  0  0  0  0  0  0  0  0  0  0
  -25.7008   -1.2329   -9.9646 C   0  0  0  0  0  0  0  0  0  0  0  0
  -25.0523   -2.0098  -11.1440 C   0  0  0  0  0  0  0  0  0  0  0  0
  -27.6496   -2.1382   -8.7820 C   0  0  0  0  0  0  0  0  0  0  0  0
  -27.8682   -3.4715   -8.8225 N   0  0  0  0  0  0  0  0  0  0  0  0
  -28.4452   -4.1576   -7.7784 N   0  0  0  0  0  0  0  0  0  0  0  0
  -28.7819   -3.5242   -6.6366 C   0  0  0  0  0  0  0  0  0  0  0  0
  -28.5020   -2.1473   -6.4801 C   0  0  0  0  0  0  0  0  0  0  0  0
  -28.7225   -1.4361   -5.2666 C   0  0  0  0  0  0  0  0  0  0  0  0
  -28.6149   -0.0519   -5.1721 C   0  0  0  0  0  0  0  0  0  0  0  0
  -28.2458    0.6665   -6.2868 C   0  0  0  0  0  0  0  0  0  0  0  0
  -27.9417   -0.0123   -7.4654 C   0  0  0  0  0  0  0  0  0  0  0  0
  -27.9977   -1.4278   -7.5993 C   0  0  0  0  0  0  0  0  0  0  0  0
  -29.5355   -4.3819   -5.6783 C   0  0  0  0  0  0  0  0  0  0  0  0
  -29.1381   -5.7089   -5.4216 C   0  0  0  0  0  0  0  0  0  0  0  0
  -29.8497   -6.5319   -4.5385 C   0  0  0  0  0  0  0  0  0  0  0  0
  -30.9677   -6.0418   -3.8707 C   0  0  0  0  0  0  0  0  0  0  0  0
  -31.4008   -4.7467   -4.1203 C   0  0  0  0  0  0  0  0  0  0  0  0
  -30.7156   -3.9480   -5.0408 C   0  0  0  0  0  0  0  0  0  0  0  0
  -25.2889   -0.5514  -13.0813 C   0  0  0  0  0  0  0  0  0  0  0  0
  -23.1238   -1.5333  -13.3741 O   0  0  0  0  0  0  0  0  0  0  0  0
  -23.7971   -0.5059  -13.4465 C   0  0  0  0  0  0  0  0  0  0  0  0
  -23.3472    0.7338  -13.8646 N   0  0  0  0  0  0  0  0  0  0  0  0
  -24.0038    1.4979  -13.7236 H   0  0  0  0  0  0  0  0  0  0  0  0
  -22.0377    1.0729  -14.2856 C   0  0  0  0  0  0  0  0  0  0  0  0
  -21.1550    0.1329  -14.8200 C   0  0  0  0  0  0  0  0  0  0  0  0
  -19.8620    0.4996  -15.2215 C   0  0  0  0  0  0  0  0  0  0  0  0
  -19.4371    1.8199  -15.0889 C   0  0  0  0  0  0  0  0  0  0  0  0
  -20.3079    2.7752  -14.5681 C   0  0  0  0  0  0  0  0  0  0  0  0
  -21.6003    2.4068  -14.1760 C   0  0  0  0  0  0  0  0  0  0  0  0
  -22.6262    3.6353  -13.5154 Cl  0  0  0  0  0  0  0  0  0  0  0  0
 24 25  2  0  0  0
 25 23  1  0  0  0
 25 26  1  0  0  0
 23  1  1  0  0  0
  1  2  1  0  0  0
  1  6  1  0  0  0
  2  3  1  0  0  0
  3  4  1  0  0  0
  4  7  1  0  0  0
  4  5  1  0  0  0
  7  8  1  0  0  0
  7 16  2  0  0  0
  8  9  2  0  0  0
  9 10  1  0  0  0
 10 17  1  0  0  0
 10 11  2  0  0  0
 17 18  1  0  0  0
 17 22  2  0  0  0
 18 19  2  0  0  0
 19 20  1  0  0  0
 20 21  2  0  0  0
 21 22  1  0  0  0
 11 12  1  0  0  0
 11 16  1  0  0  0
 12 13  2  0  0  0
 13 14  1  0  0  0
 14 15  2  0  0  0
 15 16  1  0  0  0
  5  6  1  0  0  0
 26 28  1  0  0  0
 26 27  1  0  0  0
 28 29  1  0  0  0
 28 33  2  0  0  0
 29 30  2  0  0  0
 30 31  1  0  0  0
 31 32  2  0  0  0
 32 33  1  0  0  0
 33 34  1  0  0  0
M  END
> <minimizedAffinity>
-9.87182

$$$$
