CHEMBL3925286


 36 40  0  0  0  0  0  0  0  0999 V2000
  -27.2973   -9.6611   -4.5737 N   0  0  0  0  0  0  0  0  0  0  0  0
  -27.8291   -8.3496   -4.2770 C   0  0  0  0  0  0  0  0  0  0  0  0
  -29.0949   -8.3759   -3.6850 C   0  0  0  0  0  0  0  0  0  0  0  0
  -29.9428   -7.3018   -3.8265 C   0  0  0  0  0  0  0  0  0  0  0  0
  -29.5468   -6.1344   -4.4233 C   0  0  0  0  0  0  0  0  0  0  0  0
  -30.5630   -5.3046   -4.6546 N   0  0  0  0  0  0  0  0  0  0  0  0
  -30.2600   -4.0835   -5.0983 C   0  0  0  0  0  0  0  0  0  0  0  0
  -28.9597   -3.6456   -5.2284 C   0  0  0  0  0  0  0  0  0  0  0  0
  -27.9020   -4.5322   -5.0972 N   0  0  0  0  0  0  0  0  0  0  0  0
  -28.1919   -5.8702   -4.7444 C   0  0  0  0  0  0  0  0  0  0  0  0
  -27.3472   -7.0695   -4.6985 C   0  0  0  0  0  0  0  0  0  0  0  0
  -28.8257   -2.1884   -5.3521 C   0  0  0  0  0  0  0  0  0  0  0  0
  -27.8024   -1.3318   -4.8468 C   0  0  0  0  0  0  0  0  0  0  0  0
  -28.1560   -0.0388   -4.8232 N   0  0  0  0  0  0  0  0  0  0  0  0
  -29.4175   -0.0515   -5.2837 N   0  0  0  0  0  0  0  0  0  0  0  0
  -30.0996    1.1828   -5.6010 C   0  0  0  0  0  0  0  0  0  0  0  0
  -29.9053   -1.3193   -5.4578 C   0  0  0  0  0  0  0  0  0  0  0  0
  -23.6277  -10.1440   -5.2788 C   0  0  0  0  0  0  0  0  0  0  0  0
  -23.2129  -10.8061   -4.1181 C   0  0  0  0  0  0  0  0  0  0  0  0
  -24.1496  -11.1365   -3.1416 C   0  0  0  0  0  0  0  0  0  0  0  0
  -25.4954  -10.7998   -3.3376 C   0  0  0  0  0  0  0  0  0  0  0  0
  -25.9631  -10.1353   -4.4835 C   0  0  0  0  0  0  0  0  0  0  0  0
  -24.9932   -9.8117   -5.4555 C   0  0  0  0  0  0  0  0  0  0  0  0
  -21.8621  -10.6844   -6.7924 C   0  0  0  0  0  0  0  0  0  0  0  0
  -22.7676   -9.7130   -6.2651 O   0  0  0  0  0  0  0  0  0  0  0  0
  -23.8846  -11.7418   -1.9380 O   0  0  0  0  0  0  0  0  0  0  0  0
  -24.9975  -12.3320   -1.2586 C   0  0  0  0  0  0  0  0  0  0  0  0
  -28.1949  -10.3559   -5.6057 C   0  0  0  0  0  0  0  0  0  0  0  0
  -28.2139   -9.7162   -7.0364 C   0  0  0  0  0  0  0  0  0  0  0  0
  -29.5683   -9.4389   -7.6097 N   0  0  0  0  0  0  0  0  0  0  0  0
  -29.9102   -8.0012   -7.5314 C   0  0  0  0  0  0  0  0  0  0  0  0
  -31.4264   -7.8994   -7.3306 C   0  0  0  0  0  0  0  0  0  0  0  0
  -31.9129   -9.3356   -7.2979 C   0  0  0  0  0  0  0  0  0  0  0  0
  -32.3854   -9.7065   -8.5929 O   0  0  0  0  0  0  0  0  0  0  0  0
  -30.6641  -10.1359   -6.9099 C   0  0  0  0  0  0  0  0  0  0  0  0
  -31.6122   -9.6673   -9.1855 H   0  0  0  0  0  0  0  0  0  0  0  0
 24 25  1  0  0  0
 25 18  1  0  0  0
 18 19  1  0  0  0
 18 23  2  0  0  0
 19 20  2  0  0  0
 20 26  1  0  0  0
 20 21  1  0  0  0
 26 27  1  0  0  0
 21 22  2  0  0  0
 22  1  1  0  0  0
 22 23  1  0  0  0
  1 28  1  0  0  0
  1  2  1  0  0  0
 28 29  1  0  0  0
 29 30  1  0  0  0
 30 31  1  0  0  0
 30 35  1  0  0  0
 31 32  1  0  0  0
 32 33  1  0  0  0
 33 34  1  0  0  0
 33 35  1  0  0  0
 34 36  1  0  0  0
  2  3  1  0  0  0
  2 11  2  0  0  0
  3  4  2  0  0  0
  4  5  1  0  0  0
  5  6  1  0  0  0
  5 10  2  0  0  0
  6  7  2  0  0  0
  7  8  1  0  0  0
  8 12  1  0  0  0
  8  9  2  0  0  0
 12 13  1  0  0  0
 12 17  2  0  0  0
 13 14  2  0  0  0
 14 15  1  0  0  0
 15 16  1  0  0  0
 15 17  1  0  0  0
  9 10  1  0  0  0
 10 11  1  0  0  0
M  END
> <minimizedAffinity>
-8.21791

$$$$
