CHEMBL469469


 42 45  0  0  0  0  0  0  0  0999 V2000
  -26.9335   -1.5917  -11.5294 C   0  0  0  0  0  0  0  0  0  0  0  0
  -27.4042   -2.1601  -12.7313 C   0  0  0  0  0  0  0  0  0  0  0  0
  -26.6516   -1.8663  -13.7898 N   0  0  0  0  0  0  0  0  0  0  0  0
  -25.6645   -1.0706  -13.2852 N   0  0  0  0  0  0  0  0  0  0  0  0
  -24.5908   -0.4963  -14.0178 C   0  0  0  0  0  0  0  0  0  0  0  0
  -24.5887   -0.7036  -15.3975 N   0  0  0  0  0  0  0  0  0  0  0  0
  -23.6522    0.1945  -13.3338 C   0  0  0  0  0  0  0  0  0  0  0  0
  -23.8991    0.3359  -11.8621 C   0  0  0  0  0  0  0  0  0  0  0  0
  -24.8883   -0.1629  -11.1800 N   0  0  0  0  0  0  0  0  0  0  0  0
  -25.7916   -0.9010  -11.8992 C   0  0  0  0  0  0  0  0  0  0  0  0
  -25.1833   -1.4936  -15.6621 H   0  0  0  0  0  0  0  0  0  0  0  0
  -23.6704   -0.7035  -15.8299 H   0  0  0  0  0  0  0  0  0  0  0  0
  -22.4870    0.8305  -13.9576 C   0  0  0  0  0  0  0  0  0  0  0  0
  -21.4873    0.0374  -14.5264 C   0  0  0  0  0  0  0  0  0  0  0  0
  -20.3829    0.6306  -15.1387 C   0  0  0  0  0  0  0  0  0  0  0  0
  -20.2491    2.0210  -15.2075 C   0  0  0  0  0  0  0  0  0  0  0  0
  -21.2231    2.8140  -14.5916 C   0  0  0  0  0  0  0  0  0  0  0  0
  -22.3404    2.2233  -13.9809 C   0  0  0  0  0  0  0  0  0  0  0  0
  -19.1671    2.6478  -15.8679 N   0  0  0  0  0  0  0  0  0  0  0  0
  -17.8336    2.4030  -15.5750 C   0  0  0  0  0  0  0  0  0  0  0  0
  -17.4424    1.5396  -14.7917 O   0  0  0  0  0  0  0  0  0  0  0  0
  -16.9841    3.2573  -16.2630 N   0  0  0  0  0  0  0  0  0  0  0  0
  -19.3426    3.0433  -16.7812 H   0  0  0  0  0  0  0  0  0  0  0  0
  -17.3365    4.1982  -16.3601 H   0  0  0  0  0  0  0  0  0  0  0  0
  -15.5797    3.1229  -16.1395 C   0  0  0  0  0  0  0  0  0  0  0  0
  -14.9533    1.8816  -16.2950 C   0  0  0  0  0  0  0  0  0  0  0  0
  -13.5735    1.7619  -16.1325 C   0  0  0  0  0  0  0  0  0  0  0  0
  -12.8150    2.8770  -15.7818 C   0  0  0  0  0  0  0  0  0  0  0  0
  -13.4295    4.1230  -15.6072 C   0  0  0  0  0  0  0  0  0  0  0  0
  -12.6371    5.3052  -15.1326 C   0  0  0  0  0  0  0  0  0  0  0  0
  -14.8108    4.2480  -15.8293 C   0  0  0  0  0  0  0  0  0  0  0  0
  -27.2746   -2.8767   -9.5385 N   0  0  0  0  0  0  0  0  0  0  0  0
  -27.5631   -1.7260  -10.2308 C   0  0  0  0  0  0  0  0  0  0  0  0
  -28.2850   -0.8424   -9.7770 O   0  0  0  0  0  0  0  0  0  0  0  0
  -26.7674   -3.6139  -10.0213 H   0  0  0  0  0  0  0  0  0  0  0  0
  -27.7731   -3.1060   -8.1988 C   0  0  0  0  0  0  0  0  0  0  0  0
  -29.1092   -3.8795   -8.1506 C   0  0  0  0  0  0  0  0  0  0  0  0
  -29.8443   -3.8255   -6.8638 N   0  0  0  0  0  0  0  0  0  0  0  0
  -30.1917   -6.3018   -7.2154 C   0  0  0  0  0  0  0  0  0  0  0  0
  -29.9541   -5.1534   -6.2401 C   0  0  0  0  0  0  0  0  0  0  0  0
  -29.2817   -2.7908   -5.9751 C   0  0  0  0  0  0  0  0  0  0  0  0
  -29.8778   -2.6925   -4.5709 C   0  0  0  0  0  0  0  0  0  0  0  0
 39 40  1  0  0  0
 40 38  1  0  0  0
 38 41  1  0  0  0
 38 37  1  0  0  0
 41 42  1  0  0  0
 37 36  1  0  0  0
 36 32  1  0  0  0
 32 33  1  0  0  0
 32 35  1  0  0  0
 33 34  2  0  0  0
 33  1  1  0  0  0
  1  2  1  0  0  0
  1 10  2  0  0  0
  2  3  2  0  0  0
  3  4  1  0  0  0
  4  5  1  0  0  0
  4 10  1  0  0  0
  5  6  1  0  0  0
  5  7  2  0  0  0
  6 11  1  0  0  0
  6 12  1  0  0  0
  7 13  1  0  0  0
  7  8  1  0  0  0
 13 14  1  0  0  0
 13 18  2  0  0  0
 14 15  2  0  0  0
 15 16  1  0  0  0
 16 19  1  0  0  0
 16 17  2  0  0  0
 19 20  1  0  0  0
 19 23  1  0  0  0
 20 21  2  0  0  0
 20 22  1  0  0  0
 22 25  1  0  0  0
 22 24  1  0  0  0
 25 26  1  0  0  0
 25 31  2  0  0  0
 26 27  2  0  0  0
 27 28  1  0  0  0
 28 29  2  0  0  0
 29 30  1  0  0  0
 29 31  1  0  0  0
 17 18  1  0  0  0
  8  9  2  0  0  0
  9 10  1  0  0  0
M  END
> <minimizedAffinity>
-9.58341

$$$$
