CHEMBL2338333


 22 24  0  0  0  0  0  0  0  0999 V2000
  -31.2584   -5.4008   -3.2408 C   0  0  0  0  0  0  0  0  0  0  0  0
  -30.4083   -5.4744   -4.4290 N   0  0  0  0  0  0  0  0  0  0  0  0
  -30.2807   -4.1493   -5.0371 C   0  0  0  0  0  0  0  0  0  0  0  0
  -29.3512   -4.1483   -6.2162 C   0  0  0  0  0  0  0  0  0  0  0  0
  -28.6062   -3.0888   -6.6022 C   0  0  0  0  0  0  0  0  0  0  0  0
  -29.2039   -5.4219   -6.9907 C   0  0  0  0  0  0  0  0  0  0  0  0
  -28.3973   -5.5241   -7.9145 O   0  0  0  0  0  0  0  0  0  0  0  0
  -30.1019   -6.5628   -6.6069 C   0  0  0  0  0  0  0  0  0  0  0  0
  -30.0314   -7.6916   -7.3446 C   0  0  0  0  0  0  0  0  0  0  0  0
  -30.9930   -6.3831   -5.4156 C   0  0  0  0  0  0  0  0  0  0  0  0
  -28.6200   -1.7634   -5.9608 C   0  0  0  0  0  0  0  0  0  0  0  0
  -29.7570   -0.9671   -6.0113 C   0  0  0  0  0  0  0  0  0  0  0  0
  -29.6965    0.3215   -5.4814 C   0  0  0  0  0  0  0  0  0  0  0  0
  -28.5128    0.7709   -4.9076 C   0  0  0  0  0  0  0  0  0  0  0  0
  -27.4411   -0.1000   -4.8631 C   0  0  0  0  0  0  0  0  0  0  0  0
  -27.4748   -1.3533   -5.3601 N   0  0  0  0  0  0  0  0  0  0  0  0
  -30.9024   -8.8636   -7.1683 C   0  0  0  0  0  0  0  0  0  0  0  0
  -32.2601   -8.7957   -7.4553 C   0  0  0  0  0  0  0  0  0  0  0  0
  -33.0415   -9.9354   -7.2662 C   0  0  0  0  0  0  0  0  0  0  0  0
  -32.4497  -11.1011   -6.7921 C   0  0  0  0  0  0  0  0  0  0  0  0
  -31.0957  -11.0782   -6.5194 C   0  0  0  0  0  0  0  0  0  0  0  0
  -30.3177   -9.9889   -6.6898 N   0  0  0  0  0  0  0  0  0  0  0  0
  1  2  1  0  0  0
  2  3  1  0  0  0
  2 10  1  0  0  0
  3  4  1  0  0  0
  4  5  2  0  0  0
  4  6  1  0  0  0
  5 11  1  0  0  0
 11 12  1  0  0  0
 11 16  2  0  0  0
 12 13  2  0  0  0
 13 14  1  0  0  0
 14 15  2  0  0  0
 15 16  1  0  0  0
  6  7  2  0  0  0
  6  8  1  0  0  0
  8  9  2  0  0  0
  8 10  1  0  0  0
  9 17  1  0  0  0
 17 18  1  0  0  0
 17 22  2  0  0  0
 18 19  2  0  0  0
 19 20  1  0  0  0
 20 21  2  0  0  0
 21 22  1  0  0  0
M  END
> <minimizedAffinity>
-7.78175

$$$$
