CHEMBL3780261


 29 32  0  0  0  0  0  0  0  0999 V2000
  -14.8669   -0.1543  -13.4187 C   0  0  0  0  0  0  0  0  0  0  0  0
  -15.8684    0.4024  -12.7057 N   0  0  0  0  0  0  0  0  0  0  0  0
  -16.7649    1.2379  -13.3102 N   0  0  0  0  0  0  0  0  0  0  0  0
  -16.6876    1.5298  -14.6289 C   0  0  0  0  0  0  0  0  0  0  0  0
  -15.6265    1.0080  -15.4105 C   0  0  0  0  0  0  0  0  0  0  0  0
  -15.4580    1.2715  -16.7987 C   0  0  0  0  0  0  0  0  0  0  0  0
  -14.3643    0.7763  -17.5128 C   0  0  0  0  0  0  0  0  0  0  0  0
  -13.4208   -0.0089  -16.8786 C   0  0  0  0  0  0  0  0  0  0  0  0
  -13.5737   -0.3164  -15.5240 C   0  0  0  0  0  0  0  0  0  0  0  0
  -14.6699    0.1736  -14.7722 C   0  0  0  0  0  0  0  0  0  0  0  0
  -17.7583    2.2585  -15.2230 N   0  0  0  0  0  0  0  0  0  0  0  0
  -17.5373    3.2440  -15.2993 H   0  0  0  0  0  0  0  0  0  0  0  0
  -19.1190    2.1551  -14.8319 C   0  0  0  0  0  0  0  0  0  0  0  0
  -19.8631    3.2678  -14.4258 C   0  0  0  0  0  0  0  0  0  0  0  0
  -21.2201    3.1538  -14.1004 C   0  0  0  0  0  0  0  0  0  0  0  0
  -21.8606    1.9207  -14.1903 C   0  0  0  0  0  0  0  0  0  0  0  0
  -21.1403    0.8170  -14.6503 C   0  0  0  0  0  0  0  0  0  0  0  0
  -19.7858    0.9356  -14.9872 C   0  0  0  0  0  0  0  0  0  0  0  0
  -23.1650    1.6707  -13.8638 O   0  0  0  0  0  0  0  0  0  0  0  0
  -23.4221    0.4789  -13.1293 C   0  0  0  0  0  0  0  0  0  0  0  0
  -14.0957   -1.2361  -12.6896 C   0  0  0  0  0  0  0  0  0  0  0  0
  -15.7617   -5.2413  -12.7882 C   0  0  0  0  0  0  0  0  0  0  0  0
  -16.2325   -4.3156  -11.8566 C   0  0  0  0  0  0  0  0  0  0  0  0
  -15.6950   -3.0231  -11.8011 C   0  0  0  0  0  0  0  0  0  0  0  0
  -14.6634   -2.6378  -12.6649 C   0  0  0  0  0  0  0  0  0  0  0  0
  -14.2253   -3.5653  -13.6260 C   0  0  0  0  0  0  0  0  0  0  0  0
  -14.7651   -4.8516  -13.6827 C   0  0  0  0  0  0  0  0  0  0  0  0
  -15.3208   -7.4281  -13.5998 C   0  0  0  0  0  0  0  0  0  0  0  0
  -16.1953   -6.5298  -12.9290 O   0  0  0  0  0  0  0  0  0  0  0  0
 28 29  1  0  0  0
 29 22  1  0  0  0
 22 23  1  0  0  0
 22 27  2  0  0  0
 23 24  2  0  0  0
 24 25  1  0  0  0
 25 21  1  0  0  0
 25 26  2  0  0  0
 21  1  1  0  0  0
  1  2  1  0  0  0
  1 10  2  0  0  0
  2  3  2  0  0  0
  3  4  1  0  0  0
  4 11  1  0  0  0
  4  5  2  0  0  0
 11 13  1  0  0  0
 11 12  1  0  0  0
 13 14  1  0  0  0
 13 18  2  0  0  0
 14 15  2  0  0  0
 15 16  1  0  0  0
 16 19  1  0  0  0
 16 17  2  0  0  0
 19 20  1  0  0  0
 17 18  1  0  0  0
  5  6  1  0  0  0
  5 10  1  0  0  0
  6  7  2  0  0  0
  7  8  1  0  0  0
  8  9  2  0  0  0
  9 10  1  0  0  0
 26 27  1  0  0  0
M  END
> <minimizedAffinity>
-8.30958

$$$$
