CHEMBL1271532


 30 34  0  0  0  0  0  0  0  0999 V2000
  -25.8779    9.9811  -16.5353 C   0  0  0  0  0  0  0  0  0  0  0  0
  -24.7068   10.1274  -17.2802 C   0  0  0  0  0  0  0  0  0  0  0  0
  -24.0885   11.3763  -17.3874 C   0  0  0  0  0  0  0  0  0  0  0  0
  -24.6781   12.4854  -16.7715 C   0  0  0  0  0  0  0  0  0  0  0  0
  -25.8472   12.3343  -16.0162 C   0  0  0  0  0  0  0  0  0  0  0  0
  -26.4255   11.0757  -15.8617 C   0  0  0  0  0  0  0  0  0  0  0  0
  -22.8499   11.5111  -18.1471 C   0  0  0  0  0  0  0  0  0  0  0  0
  -21.5183   11.1286  -17.5828 C   0  0  0  0  0  0  0  0  0  0  0  0
  -20.3787   11.1573  -18.2072 N   0  0  0  0  0  0  0  0  0  0  0  0
  -20.4194   11.5897  -19.5109 C   0  0  0  0  0  0  0  0  0  0  0  0
  -19.4518   11.7129  -20.4869 C   0  0  0  0  0  0  0  0  0  0  0  0
  -20.1268   12.2285  -21.6072 C   0  0  0  0  0  0  0  0  0  0  0  0
  -21.4304   12.4126  -21.3929 N   0  0  0  0  0  0  0  0  0  0  0  0
  -21.6164   12.0045  -20.1110 N   0  0  0  0  0  0  0  0  0  0  0  0
  -22.8189   11.9514  -19.4161 C   0  0  0  0  0  0  0  0  0  0  0  0
  -18.0368   11.3870  -20.4309 C   0  0  0  0  0  0  0  0  0  0  0  0
  -16.9885   12.2612  -20.0773 C   0  0  0  0  0  0  0  0  0  0  0  0
  -15.7930   11.6617  -20.1093 N   0  0  0  0  0  0  0  0  0  0  0  0
  -16.0832   10.4025  -20.4821 N   0  0  0  0  0  0  0  0  0  0  0  0
  -17.4161   10.1866  -20.6858 C   0  0  0  0  0  0  0  0  0  0  0  0
  -15.3179    9.7444  -20.5747 H   0  0  0  0  0  0  0  0  0  0  0  0
  -27.5119   11.0133  -15.0189 O   0  0  0  0  0  0  0  0  0  0  0  0
  -28.6349   11.7878  -15.4676 C   0  0  0  0  0  0  0  0  0  0  0  0
  -29.6229   12.0512  -14.3189 C   0  0  0  0  0  0  0  0  0  0  0  0
  -29.4244   11.1561  -13.1589 N   0  0  0  0  0  0  0  0  0  0  0  0
  -30.5251   10.1727  -13.0279 C   0  0  0  0  0  0  0  0  0  0  0  0
  -31.8237   10.7622  -12.4481 C   0  0  0  0  0  0  0  0  0  0  0  0
  -31.5940   11.3736  -11.1730 O   0  0  0  0  0  0  0  0  0  0  0  0
  -30.5932   12.3928  -11.2679 C   0  0  0  0  0  0  0  0  0  0  0  0
  -29.2827   11.8437  -11.8554 C   0  0  0  0  0  0  0  0  0  0  0  0
  1  2  1  0  0  0
  1  6  2  0  0  0
  2  3  2  0  0  0
  3  7  1  0  0  0
  3  4  1  0  0  0
  7  8  1  0  0  0
  7 15  2  0  0  0
  8  9  2  0  0  0
  9 10  1  0  0  0
 10 11  2  0  0  0
 10 14  1  0  0  0
 11 16  1  0  0  0
 11 12  1  0  0  0
 16 17  1  0  0  0
 16 20  2  0  0  0
 17 18  2  0  0  0
 18 19  1  0  0  0
 19 20  1  0  0  0
 19 21  1  0  0  0
 12 13  2  0  0  0
 13 14  1  0  0  0
 14 15  1  0  0  0
  4  5  2  0  0  0
  5  6  1  0  0  0
  6 22  1  0  0  0
 22 23  1  0  0  0
 23 24  1  0  0  0
 24 25  1  0  0  0
 25 26  1  0  0  0
 25 30  1  0  0  0
 26 27  1  0  0  0
 27 28  1  0  0  0
 28 29  1  0  0  0
 29 30  1  0  0  0
M  END
> <minimizedAffinity>
-6.09161

$$$$
