CHEMBL3690480


 34 37  0  0  0  0  0  0  0  0999 V2000
  -19.1917   11.7512  -20.1501 C   0  0  0  0  0  0  0  0  0  0  0  0
  -19.4051   11.2636  -18.7799 C   0  0  0  0  0  0  0  0  0  0  0  0
  -20.6450   11.1776  -18.2751 C   0  0  0  0  0  0  0  0  0  0  0  0
  -21.7412   11.5919  -19.0358 N   0  0  0  0  0  0  0  0  0  0  0  0
  -23.1014   11.6812  -18.7266 C   0  0  0  0  0  0  0  0  0  0  0  0
  -23.6794   12.0892  -19.9191 C   0  0  0  0  0  0  0  0  0  0  0  0
  -22.7535   12.3035  -20.9042 N   0  0  0  0  0  0  0  0  0  0  0  0
  -21.5936   12.0299  -20.3511 C   0  0  0  0  0  0  0  0  0  0  0  0
  -20.2729   12.1077  -20.8874 C   0  0  0  0  0  0  0  0  0  0  0  0
  -14.1045   12.1846  -22.5978 C   0  0  0  0  0  0  0  0  0  0  0  0
  -15.4201   12.0573  -21.9021 C   0  0  0  0  0  0  0  0  0  0  0  0
  -16.4793   12.6590  -22.4787 N   0  0  0  0  0  0  0  0  0  0  0  0
  -17.7012   12.5487  -21.8911 N   0  0  0  0  0  0  0  0  0  0  0  0
  -17.8320   11.8424  -20.7458 C   0  0  0  0  0  0  0  0  0  0  0  0
  -16.8046   11.2277  -20.1302 N   0  0  0  0  0  0  0  0  0  0  0  0
  -15.5943   11.3426  -20.7256 C   0  0  0  0  0  0  0  0  0  0  0  0
  -14.4544   10.6490  -20.0438 C   0  0  0  0  0  0  0  0  0  0  0  0
  -23.7303   11.4534  -17.4125 C   0  0  0  0  0  0  0  0  0  0  0  0
  -23.0429   11.7788  -16.2361 C   0  0  0  0  0  0  0  0  0  0  0  0
  -23.6087   11.5506  -14.9889 C   0  0  0  0  0  0  0  0  0  0  0  0
  -24.9080   11.0739  -14.8944 C   0  0  0  0  0  0  0  0  0  0  0  0
  -25.6703   10.8269  -16.0364 C   0  0  0  0  0  0  0  0  0  0  0  0
  -25.0574   10.9847  -17.2989 C   0  0  0  0  0  0  0  0  0  0  0  0
  -27.0357   10.4453  -15.9707 N   0  0  0  0  0  0  0  0  0  0  0  0
  -28.0188   11.0954  -15.2496 C   0  0  0  0  0  0  0  0  0  0  0  0
  -27.8911   12.0925  -14.5590 O   0  0  0  0  0  0  0  0  0  0  0  0
  -29.2463   10.4693  -15.3304 N   0  0  0  0  0  0  0  0  0  0  0  0
  -27.3194    9.6575  -16.5315 H   0  0  0  0  0  0  0  0  0  0  0  0
  -29.4596    9.9918  -16.1932 H   0  0  0  0  0  0  0  0  0  0  0  0
  -30.3703   11.0757  -14.6008 C   0  0  0  0  0  0  0  0  0  0  0  0
  -30.5842   10.5993  -13.1550 C   0  0  0  0  0  0  0  0  0  0  0  0
  -29.7883    9.5527  -12.8387 F   0  0  0  0  0  0  0  0  0  0  0  0
  -30.2719   11.6007  -12.2928 F   0  0  0  0  0  0  0  0  0  0  0  0
  -31.8633   10.2483  -12.9093 F   0  0  0  0  0  0  0  0  0  0  0  0
 10 11  1  0  0  0
 11 12  1  0  0  0
 11 16  2  0  0  0
 12 13  2  0  0  0
 13 14  1  0  0  0
 14  1  1  0  0  0
 14 15  2  0  0  0
  1  2  1  0  0  0
  1  9  2  0  0  0
  2  3  2  0  0  0
  3  4  1  0  0  0
  4  5  1  0  0  0
  4  8  1  0  0  0
  5 18  1  0  0  0
  5  6  2  0  0  0
 18 19  1  0  0  0
 18 23  2  0  0  0
 19 20  2  0  0  0
 20 21  1  0  0  0
 21 22  2  0  0  0
 22 24  1  0  0  0
 22 23  1  0  0  0
 24 25  1  0  0  0
 24 28  1  0  0  0
 25 26  2  0  0  0
 25 27  1  0  0  0
 27 30  1  0  0  0
 27 29  1  0  0  0
 30 31  1  0  0  0
 31 32  1  0  0  0
 31 33  1  0  0  0
 31 34  1  0  0  0
  6  7  1  0  0  0
  7  8  2  0  0  0
  8  9  1  0  0  0
 15 16  1  0  0  0
 16 17  1  0  0  0
M  END
> <minimizedAffinity>
-6.06144

$$$$
