CHEMBL4084937


 31 36  0  0  0  0  0  0  0  0999 V2000
  -31.1638   -5.7095   -4.7982 O   0  0  0  0  0  0  0  0  0  0  0  0
  -30.0280   -5.9044   -5.1953 C   0  0  0  0  0  0  0  0  0  0  0  0
  -28.9738   -5.0292   -5.3406 N   0  0  0  0  0  0  0  0  0  0  0  0
  -29.7052   -7.1409   -5.7942 N   0  0  0  0  0  0  0  0  0  0  0  0
  -30.4685   -7.7701   -6.7607 C   0  0  0  0  0  0  0  0  0  0  0  0
  -29.8363   -8.9227   -7.1586 C   0  0  0  0  0  0  0  0  0  0  0  0
  -28.6990   -9.0932   -6.3302 C   0  0  0  0  0  0  0  0  0  0  0  0
  -27.7503  -10.1285   -6.1896 C   0  0  0  0  0  0  0  0  0  0  0  0
  -26.7732  -10.0523   -5.1912 C   0  0  0  0  0  0  0  0  0  0  0  0
  -26.6786   -8.8978   -4.4079 C   0  0  0  0  0  0  0  0  0  0  0  0
  -27.5966   -7.8458   -4.5404 C   0  0  0  0  0  0  0  0  0  0  0  0
  -28.6095   -7.9664   -5.5057 C   0  0  0  0  0  0  0  0  0  0  0  0
  -28.3417   -5.1843   -6.1173 H   0  0  0  0  0  0  0  0  0  0  0  0
  -29.1070   -3.7017   -4.9944 C   0  0  0  0  0  0  0  0  0  0  0  0
  -29.2613   -2.5855   -5.8475 C   0  0  0  0  0  0  0  0  0  0  0  0
  -29.3687   -1.5138   -4.9947 C   0  0  0  0  0  0  0  0  0  0  0  0
  -29.2530   -1.9581   -3.7113 O   0  0  0  0  0  0  0  0  0  0  0  0
  -29.1627   -3.3398   -3.7103 N   0  0  0  0  0  0  0  0  0  0  0  0
  -29.6034   -0.0699   -5.3951 C   0  0  0  0  0  0  0  0  0  0  0  0
  -28.6917    0.5481   -6.4337 C   0  0  0  0  0  0  0  0  0  0  0  0
  -28.5506    0.9506   -5.0067 C   0  0  0  0  0  0  0  0  0  0  0  0
  -25.9387  -11.1549   -5.0913 O   0  0  0  0  0  0  0  0  0  0  0  0
  -24.5832  -10.9699   -5.3254 C   0  0  0  0  0  0  0  0  0  0  0  0
  -24.1513  -10.8204   -6.5872 N   0  0  0  0  0  0  0  0  0  0  0  0
  -22.8233  -10.8629   -6.7719 C   0  0  0  0  0  0  0  0  0  0  0  0
  -21.9030  -11.0833   -5.8187 N   0  0  0  0  0  0  0  0  0  0  0  0
  -22.3906  -11.1823   -4.5701 C   0  0  0  0  0  0  0  0  0  0  0  0
  -23.7307  -11.0414   -4.2561 C   0  0  0  0  0  0  0  0  0  0  0  0
  -24.0383  -11.0485   -2.8033 C   0  0  0  0  0  0  0  0  0  0  0  0
  -22.7159  -12.0766   -2.0805 S   0  0  0  0  0  0  0  0  0  0  0  0
  -21.5308  -11.6311   -3.4128 C   0  0  0  0  0  0  0  0  0  0  0  0
  1  2  2  0  0  0
  2  3  1  0  0  0
  2  4  1  0  0  0
  3 14  1  0  0  0
  3 13  1  0  0  0
 14 15  1  0  0  0
 14 18  2  0  0  0
 15 16  2  0  0  0
 16 19  1  0  0  0
 16 17  1  0  0  0
 19 20  1  0  0  0
 19 21  1  0  0  0
 20 21  1  0  0  0
 17 18  1  0  0  0
  4  5  1  0  0  0
  4 12  1  0  0  0
  5  6  2  0  0  0
  6  7  1  0  0  0
  7  8  1  0  0  0
  7 12  2  0  0  0
  8  9  2  0  0  0
  9 22  1  0  0  0
  9 10  1  0  0  0
 22 23  1  0  0  0
 23 24  1  0  0  0
 23 28  2  0  0  0
 24 25  2  0  0  0
 25 26  1  0  0  0
 26 27  2  0  0  0
 27 28  1  0  0  0
 27 31  1  0  0  0
 28 29  1  0  0  0
 29 30  1  0  0  0
 30 31  1  0  0  0
 10 11  2  0  0  0
 11 12  1  0  0  0
M  END
> <minimizedAffinity>
-9.06191

$$$$
