CHEMBL1991285


 33 35  0  0  0  0  0  0  0  0999 V2000
  -11.8124    2.3228  -13.2715 C   0  0  0  0  0  0  0  0  0  0  0  0
  -13.1373    2.0790  -13.9428 C   0  0  0  0  0  0  0  0  0  0  0  0
  -13.8180    0.8788  -13.6910 C   0  0  0  0  0  0  0  0  0  0  0  0
  -15.0654    0.6127  -14.2741 C   0  0  0  0  0  0  0  0  0  0  0  0
  -15.6488    1.5677  -15.1261 C   0  0  0  0  0  0  0  0  0  0  0  0
  -14.9696    2.7639  -15.3868 C   0  0  0  0  0  0  0  0  0  0  0  0
  -13.7227    3.0135  -14.8052 C   0  0  0  0  0  0  0  0  0  0  0  0
  -12.9290    4.4998  -15.1902 Cl  0  0  0  0  0  0  0  0  0  0  0  0
  -16.9234    1.2953  -15.6944 N   0  0  0  0  0  0  0  0  0  0  0  0
  -18.0968    1.4280  -14.9706 C   0  0  0  0  0  0  0  0  0  0  0  0
  -18.1499    1.8652  -13.8262 O   0  0  0  0  0  0  0  0  0  0  0  0
  -19.2072    0.9660  -15.6522 N   0  0  0  0  0  0  0  0  0  0  0  0
  -16.9106    0.6148  -16.4413 H   0  0  0  0  0  0  0  0  0  0  0  0
  -19.0623    0.2157  -16.3087 H   0  0  0  0  0  0  0  0  0  0  0  0
  -20.4529    0.8837  -15.0009 C   0  0  0  0  0  0  0  0  0  0  0  0
  -21.1111    1.9982  -14.4732 C   0  0  0  0  0  0  0  0  0  0  0  0
  -22.2416    1.9119  -13.7196 N   0  0  0  0  0  0  0  0  0  0  0  0
  -22.6861    0.6546  -13.4899 C   0  0  0  0  0  0  0  0  0  0  0  0
  -22.0653   -0.4511  -14.0583 C   0  0  0  0  0  0  0  0  0  0  0  0
  -20.9592   -0.3601  -14.8519 N   0  0  0  0  0  0  0  0  0  0  0  0
  -23.8130    0.5014  -12.6078 C   0  0  0  0  0  0  0  0  0  0  0  0
  -24.7190    0.4273  -11.8940 N   0  0  0  0  0  0  0  0  0  0  0  0
  -15.8040   -0.5201  -14.0269 O   0  0  0  0  0  0  0  0  0  0  0  0
  -15.9314   -0.9043  -12.6507 C   0  0  0  0  0  0  0  0  0  0  0  0
  -15.5440   -2.3693  -12.4699 C   0  0  0  0  0  0  0  0  0  0  0  0
  -16.2835   -3.3109  -13.4180 C   0  0  0  0  0  0  0  0  0  0  0  0
  -16.3097   -4.6717  -12.7226 C   0  0  0  0  0  0  0  0  0  0  0  0
  -15.8621   -4.4385  -11.2777 C   0  0  0  0  0  0  0  0  0  0  0  0
  -15.8773   -2.9226  -11.0852 C   0  0  0  0  0  0  0  0  0  0  0  0
  -14.4848   -5.0355  -11.0454 C   0  0  0  0  0  0  0  0  0  0  0  0
  -13.4746   -4.7259  -11.6567 O   0  0  0  0  0  0  0  0  0  0  0  0
  -14.4847   -5.9991  -10.0956 O   0  0  0  0  0  0  0  0  0  0  0  0
  -15.3557   -6.1615   -9.6874 H   0  0  0  0  0  0  0  0  0  0  0  0
  1  2  1  0  0  0
  2  3  1  0  0  0
  2  7  2  0  0  0
  3  4  2  0  0  0
  4 23  1  0  0  0
  4  5  1  0  0  0
 23 24  1  0  0  0
 24 25  1  0  0  0
 25 26  1  0  0  0
 25 29  1  0  0  0
 26 27  1  0  0  0
 27 28  1  0  0  0
 28 30  1  0  0  0
 28 29  1  0  0  0
 30 31  2  0  0  0
 30 32  1  0  0  0
 32 33  1  0  0  0
  5  9  1  0  0  0
  5  6  2  0  0  0
  9 10  1  0  0  0
  9 13  1  0  0  0
 10 11  2  0  0  0
 10 12  1  0  0  0
 12 15  1  0  0  0
 12 14  1  0  0  0
 15 16  1  0  0  0
 15 20  2  0  0  0
 16 17  2  0  0  0
 17 18  1  0  0  0
 18 21  1  0  0  0
 18 19  2  0  0  0
 21 22  3  0  0  0
 19 20  1  0  0  0
  6  7  1  0  0  0
  7  8  1  0  0  0
M  END
> <minimizedAffinity>
-7.26154

$$$$
