CHEMBL3694674


 34 37  0  0  0  0  0  0  0  0999 V2000
  -22.1008    0.6039  -14.3096 C   0  0  0  0  0  0  0  0  0  0  0  0
  -20.9450   -0.2368  -14.5672 C   0  0  0  0  0  0  0  0  0  0  0  0
  -19.7812    0.3513  -14.8661 C   0  0  0  0  0  0  0  0  0  0  0  0
  -19.6853    1.7430  -14.9079 N   0  0  0  0  0  0  0  0  0  0  0  0
  -18.6100    2.5727  -15.1810 C   0  0  0  0  0  0  0  0  0  0  0  0
  -19.1224    3.8547  -15.0401 C   0  0  0  0  0  0  0  0  0  0  0  0
  -20.4514    3.8450  -14.7222 N   0  0  0  0  0  0  0  0  0  0  0  0
  -20.7752    2.5725  -14.6481 C   0  0  0  0  0  0  0  0  0  0  0  0
  -22.0165    1.9492  -14.3437 C   0  0  0  0  0  0  0  0  0  0  0  0
  -17.2391    2.1556  -15.4781 C   0  0  0  0  0  0  0  0  0  0  0  0
  -16.4358    2.8633  -16.3655 C   0  0  0  0  0  0  0  0  0  0  0  0
  -15.1596    2.4137  -16.6761 C   0  0  0  0  0  0  0  0  0  0  0  0
  -14.7054    1.2038  -16.1505 C   0  0  0  0  0  0  0  0  0  0  0  0
  -15.4835    0.4580  -15.2693 C   0  0  0  0  0  0  0  0  0  0  0  0
  -16.7367    0.9699  -14.9073 C   0  0  0  0  0  0  0  0  0  0  0  0
  -15.0500   -0.8079  -14.7752 N   0  0  0  0  0  0  0  0  0  0  0  0
  -14.9796   -1.1387  -13.4479 C   0  0  0  0  0  0  0  0  0  0  0  0
  -15.3085   -0.4072  -12.4944 O   0  0  0  0  0  0  0  0  0  0  0  0
  -14.4927   -2.3850  -13.1754 N   0  0  0  0  0  0  0  0  0  0  0  0
  -14.8222   -1.5212  -15.4525 H   0  0  0  0  0  0  0  0  0  0  0  0
  -14.3330   -3.0625  -13.9081 H   0  0  0  0  0  0  0  0  0  0  0  0
  -14.4121   -2.7921  -11.7653 C   0  0  0  0  0  0  0  0  0  0  0  0
  -15.6598   -3.4428  -11.1670 C   0  0  0  0  0  0  0  0  0  0  0  0
  -16.5938   -3.7046  -12.1100 F   0  0  0  0  0  0  0  0  0  0  0  0
  -15.3402   -4.6256  -10.5852 F   0  0  0  0  0  0  0  0  0  0  0  0
  -16.2266   -2.6686  -10.2155 F   0  0  0  0  0  0  0  0  0  0  0  0
  -24.5768   -0.6299  -13.7421 C   0  0  0  0  0  0  0  0  0  0  0  0
  -23.4336   -0.0602  -14.0041 C   0  0  0  0  0  0  0  0  0  0  0  0
  -25.6182   -1.3885  -10.9686 C   0  0  0  0  0  0  0  0  0  0  0  0
  -26.2988   -1.5936  -12.2223 N   0  0  0  0  0  0  0  0  0  0  0  0
  -27.5312   -2.1662  -12.3812 C   0  0  0  0  0  0  0  0  0  0  0  0
  -27.7584   -2.1430  -13.7369 C   0  0  0  0  0  0  0  0  0  0  0  0
  -26.6987   -1.5740  -14.3979 N   0  0  0  0  0  0  0  0  0  0  0  0
  -25.8275   -1.2502  -13.4647 C   0  0  0  0  0  0  0  0  0  0  0  0
 29 30  1  0  0  0
 30 31  1  0  0  0
 30 34  1  0  0  0
 31 32  2  0  0  0
 32 33  1  0  0  0
 33 34  2  0  0  0
 34 27  1  0  0  0
 27 28  3  0  0  0
 28  1  1  0  0  0
  1  2  1  0  0  0
  1  9  2  0  0  0
  2  3  2  0  0  0
  3  4  1  0  0  0
  4  5  1  0  0  0
  4  8  1  0  0  0
  5 10  1  0  0  0
  5  6  2  0  0  0
 10 11  1  0  0  0
 10 15  2  0  0  0
 11 12  2  0  0  0
 12 13  1  0  0  0
 13 14  2  0  0  0
 14 16  1  0  0  0
 14 15  1  0  0  0
 16 17  1  0  0  0
 16 20  1  0  0  0
 17 18  2  0  0  0
 17 19  1  0  0  0
 19 22  1  0  0  0
 19 21  1  0  0  0
 22 23  1  0  0  0
 23 24  1  0  0  0
 23 25  1  0  0  0
 23 26  1  0  0  0
  6  7  1  0  0  0
  7  8  2  0  0  0
  8  9  1  0  0  0
M  END
> <minimizedAffinity>
-9.23330

$$$$
