CHEMBL3656084


 48 51  0  0  0  0  0  0  0  0999 V2000
  -21.9438    0.9063  -14.4537 C   0  0  0  0  0  0  0  0  0  0  0  0
  -22.6037    2.0691  -14.0666 C   0  0  0  0  0  0  0  0  0  0  0  0
  -21.9044    3.2588  -14.1085 C   0  0  0  0  0  0  0  0  0  0  0  0
  -20.6023    3.3571  -14.4562 N   0  0  0  0  0  0  0  0  0  0  0  0
  -19.9651    2.2029  -14.7709 C   0  0  0  0  0  0  0  0  0  0  0  0
  -20.5899    0.9636  -14.7728 C   0  0  0  0  0  0  0  0  0  0  0  0
  -18.5643    2.3742  -15.1432 C   0  0  0  0  0  0  0  0  0  0  0  0
  -17.5380    1.4621  -15.3164 C   0  0  0  0  0  0  0  0  0  0  0  0
  -16.3651    2.1567  -15.7433 C   0  0  0  0  0  0  0  0  0  0  0  0
  -16.7210    3.4936  -15.7916 C   0  0  0  0  0  0  0  0  0  0  0  0
  -18.0336    3.6128  -15.4252 N   0  0  0  0  0  0  0  0  0  0  0  0
  -18.5722    4.4695  -15.3788 H   0  0  0  0  0  0  0  0  0  0  0  0
  -15.0433    1.6380  -16.0847 C   0  0  0  0  0  0  0  0  0  0  0  0
  -14.7245    1.3270  -17.2283 O   0  0  0  0  0  0  0  0  0  0  0  0
  -14.1758    1.5399  -15.0245 N   0  0  0  0  0  0  0  0  0  0  0  0
  -14.4723    1.8418  -14.1046 H   0  0  0  0  0  0  0  0  0  0  0  0
  -12.8065    1.0549  -15.1584 C   0  0  0  0  0  0  0  0  0  0  0  0
  -12.7528   -0.2847  -14.4159 C   0  0  0  0  0  0  0  0  0  0  0  0
  -12.2149   -1.2854  -14.8760 O   0  0  0  0  0  0  0  0  0  0  0  0
  -13.3178   -0.2714  -13.1893 O   0  0  0  0  0  0  0  0  0  0  0  0
  -13.7527    0.5737  -12.9402 H   0  0  0  0  0  0  0  0  0  0  0  0
  -11.7983    2.0488  -14.5512 C   0  0  0  0  0  0  0  0  0  0  0  0
  -12.4303    3.2041  -13.7840 C   0  0  0  0  0  0  0  0  0  0  0  0
  -12.2525    3.0147  -12.3049 C   0  0  0  0  0  0  0  0  0  0  0  0
  -12.8316    2.1306  -11.6831 O   0  0  0  0  0  0  0  0  0  0  0  0
  -11.3391    3.8306  -11.7499 O   0  0  0  0  0  0  0  0  0  0  0  0
  -10.8878    4.4282  -12.3804 H   0  0  0  0  0  0  0  0  0  0  0  0
  -22.5332   -0.3378  -14.4957 O   0  0  0  0  0  0  0  0  0  0  0  0
  -25.9496   -1.1680  -12.2321 C   0  0  0  0  0  0  0  0  0  0  0  0
  -24.8844   -0.4843  -11.6347 C   0  0  0  0  0  0  0  0  0  0  0  0
  -23.7387   -0.1747  -12.3687 C   0  0  0  0  0  0  0  0  0  0  0  0
  -23.6248   -0.5959  -13.6945 C   0  0  0  0  0  0  0  0  0  0  0  0
  -24.6925   -1.2696  -14.2963 C   0  0  0  0  0  0  0  0  0  0  0  0
  -25.8448   -1.5798  -13.5607 C   0  0  0  0  0  0  0  0  0  0  0  0
  -28.3136   -2.0976   -9.6503 N   0  0  0  0  0  0  0  0  0  0  0  0
  -27.0768   -1.8457  -10.2081 C   0  0  0  0  0  0  0  0  0  0  0  0
  -25.9970   -1.9470   -9.6249 O   0  0  0  0  0  0  0  0  0  0  0  0
  -27.1577   -1.3768  -11.5184 N   0  0  0  0  0  0  0  0  0  0  0  0
  -29.1186   -1.8045  -10.1681 H   0  0  0  0  0  0  0  0  0  0  0  0
  -27.8793   -0.6871  -11.6599 H   0  0  0  0  0  0  0  0  0  0  0  0
  -30.0074   -5.6793   -6.6829 C   0  0  0  0  0  0  0  0  0  0  0  0
  -29.3939   -4.3200   -6.8571 C   0  0  0  0  0  0  0  0  0  0  0  0
  -29.1288   -3.5291   -5.7347 C   0  0  0  0  0  0  0  0  0  0  0  0
  -28.5271   -2.2873   -5.8886 C   0  0  0  0  0  0  0  0  0  0  0  0
  -28.2058   -1.8194   -7.1601 C   0  0  0  0  0  0  0  0  0  0  0  0
  -27.4973   -0.6841   -7.2036 F   0  0  0  0  0  0  0  0  0  0  0  0
  -28.5214   -2.5522   -8.3143 C   0  0  0  0  0  0  0  0  0  0  0  0
  -29.0871   -3.8278   -8.1424 C   0  0  0  0  0  0  0  0  0  0  0  0
 41 42  1  0  0  0
 42 43  1  0  0  0
 42 48  2  0  0  0
 43 44  2  0  0  0
 44 45  1  0  0  0
 45 46  1  0  0  0
 45 47  2  0  0  0
 47 35  1  0  0  0
 47 48  1  0  0  0
 35 36  1  0  0  0
 35 39  1  0  0  0
 36 37  2  0  0  0
 36 38  1  0  0  0
 38 29  1  0  0  0
 38 40  1  0  0  0
 29 30  1  0  0  0
 29 34  2  0  0  0
 30 31  2  0  0  0
 31 32  1  0  0  0
 32 28  1  0  0  0
 32 33  2  0  0  0
 28  1  1  0  0  0
  1  2  1  0  0  0
  1  6  2  0  0  0
  2  3  2  0  0  0
  3  4  1  0  0  0
  4  5  2  0  0  0
  5  7  1  0  0  0
  5  6  1  0  0  0
  7  8  2  0  0  0
  7 11  1  0  0  0
  8  9  1  0  0  0
  9 13  1  0  0  0
  9 10  2  0  0  0
 13 14  2  0  0  0
 13 15  1  0  0  0
 15 17  1  0  0  0
 15 16  1  0  0  0
 17 22  1  0  0  0
 17 18  1  0  0  0
 22 23  1  0  0  0
 23 24  1  0  0  0
 24 25  2  0  0  0
 24 26  1  0  0  0
 26 27  1  0  0  0
 18 19  2  0  0  0
 18 20  1  0  0  0
 20 21  1  0  0  0
 10 11  1  0  0  0
 11 12  1  0  0  0
 33 34  1  0  0  0
M  END
> <minimizedAffinity>
-11.24637

$$$$
