CHEMBL3972517


 38 42  0  0  0  0  0  0  0  0999 V2000
  -15.4287    2.1941  -16.2380 N   0  0  0  0  0  0  0  0  0  0  0  0
  -16.8112    2.2066  -15.7521 C   0  0  0  0  0  0  0  0  0  0  0  0
  -17.2592    1.0036  -15.2652 C   0  0  0  0  0  0  0  0  0  0  0  0
  -18.5260    0.9427  -14.8254 C   0  0  0  0  0  0  0  0  0  0  0  0
  -19.4434    1.9902  -14.9423 C   0  0  0  0  0  0  0  0  0  0  0  0
  -20.4605    1.3289  -15.2880 N   0  0  0  0  0  0  0  0  0  0  0  0
  -21.1565    1.0565  -14.2435 C   0  0  0  0  0  0  0  0  0  0  0  0
  -22.0034    1.9739  -13.9351 C   0  0  0  0  0  0  0  0  0  0  0  0
  -21.2092    3.2757  -14.5878 N   0  0  0  0  0  0  0  0  0  0  0  0
  -19.5366    3.3139  -15.1793 C   0  0  0  0  0  0  0  0  0  0  0  0
  -17.8554    3.3267  -15.7696 C   0  0  0  0  0  0  0  0  0  0  0  0
  -23.3291    0.7114  -13.6865 C   0  0  0  0  0  0  0  0  0  0  0  0
  -23.9642   -0.5504  -14.2920 C   0  0  0  0  0  0  0  0  0  0  0  0
  -24.7696   -1.3431  -13.5080 N   0  0  0  0  0  0  0  0  0  0  0  0
  -24.7464   -0.8022  -12.2843 N   0  0  0  0  0  0  0  0  0  0  0  0
  -25.4215   -1.4881  -11.1248 C   0  0  0  0  0  0  0  0  0  0  0  0
  -23.9547    0.4101  -12.3637 C   0  0  0  0  0  0  0  0  0  0  0  0
  -14.3172    5.0987  -18.4976 C   0  0  0  0  0  0  0  0  0  0  0  0
  -13.5270    5.7822  -17.6431 C   0  0  0  0  0  0  0  0  0  0  0  0
  -13.3188    5.3027  -16.3480 C   0  0  0  0  0  0  0  0  0  0  0  0
  -13.8999    4.1014  -15.9167 C   0  0  0  0  0  0  0  0  0  0  0  0
  -14.7487    3.3725  -16.7388 C   0  0  0  0  0  0  0  0  0  0  0  0
  -14.7809    3.8810  -18.0593 C   0  0  0  0  0  0  0  0  0  0  0  0
  -14.7657    6.8846  -19.9758 C   0  0  0  0  0  0  0  0  0  0  0  0
  -14.7736    5.4933  -19.7192 O   0  0  0  0  0  0  0  0  0  0  0  0
  -12.6026    5.9926  -15.4089 O   0  0  0  0  0  0  0  0  0  0  0  0
  -11.2635    5.5338  -15.2487 C   0  0  0  0  0  0  0  0  0  0  0  0
  -15.0363    0.8445  -16.7787 C   0  0  0  0  0  0  0  0  0  0  0  0
  -13.5957    0.4839  -16.5466 C   0  0  0  0  0  0  0  0  0  0  0  0
  -13.1639   -0.0873  -15.2481 C   0  0  0  0  0  0  0  0  0  0  0  0
  -14.3240   -0.6512  -14.5309 N   0  0  0  0  0  0  0  0  0  0  0  0
  -14.0440   -2.0725  -14.3321 C   0  0  0  0  0  0  0  0  0  0  0  0
  -15.2258   -2.7506  -13.6644 C   0  0  0  0  0  0  0  0  0  0  0  0
  -15.5143   -2.1200  -12.3022 C   0  0  0  0  0  0  0  0  0  0  0  0
  -15.7127   -0.6223  -12.4691 C   0  0  0  0  0  0  0  0  0  0  0  0
  -14.5351   -0.0136  -13.2135 C   0  0  0  0  0  0  0  0  0  0  0  0
  -14.4304   -2.3433  -11.3872 O   0  0  0  0  0  0  0  0  0  0  0  0
  -14.4149   -3.6852  -10.9187 C   0  0  0  0  0  0  0  0  0  0  0  0
 24 25  1  0  0  0
 25 18  1  0  0  0
 18 19  1  0  0  0
 18 23  2  0  0  0
 19 20  2  0  0  0
 20 26  1  0  0  0
 20 21  1  0  0  0
 26 27  1  0  0  0
 21 22  2  0  0  0
 22  1  1  0  0  0
 22 23  1  0  0  0
  1 28  1  0  0  0
  1  2  1  0  0  0
 28 29  1  0  0  0
 29 30  1  0  0  0
 30 31  1  0  0  0
 31 32  1  0  0  0
 31 36  1  0  0  0
 32 33  1  0  0  0
 33 34  1  0  0  0
 34 37  1  0  0  0
 34 35  1  0  0  0
 37 38  1  0  0  0
 35 36  1  0  0  0
  2  3  1  0  0  0
  2 11  2  0  0  0
  3  4  2  0  0  0
  4  5  1  0  0  0
  5  6  1  0  0  0
  5 10  2  0  0  0
  6  7  2  0  0  0
  7  8  1  0  0  0
  8 12  1  0  0  0
  8  9  2  0  0  0
 12 13  1  0  0  0
 12 17  2  0  0  0
 13 14  2  0  0  0
 14 15  1  0  0  0
 15 16  1  0  0  0
 15 17  1  0  0  0
  9 10  1  0  0  0
 10 11  1  0  0  0
M  END
> <minimizedAffinity>
-9.28641

$$$$
