CHEMBL3686061


 39 42  0  0  0  0  0  0  0  0999 V2000
  -27.6259   -2.0286   -9.0679 C   0  0  0  0  0  0  0  0  0  0  0  0
  -28.1314   -3.3750   -8.7489 C   0  0  0  0  0  0  0  0  0  0  0  0
  -28.4494   -3.7054   -7.4895 C   0  0  0  0  0  0  0  0  0  0  0  0
  -28.5383   -2.7032   -6.5319 N   0  0  0  0  0  0  0  0  0  0  0  0
  -29.1505   -2.7130   -5.2883 C   0  0  0  0  0  0  0  0  0  0  0  0
  -28.9476   -1.4233   -4.8158 C   0  0  0  0  0  0  0  0  0  0  0  0
  -28.3065   -0.6286   -5.7288 N   0  0  0  0  0  0  0  0  0  0  0  0
  -28.1282   -1.3976   -6.7798 C   0  0  0  0  0  0  0  0  0  0  0  0
  -27.6233   -1.0968   -8.0802 C   0  0  0  0  0  0  0  0  0  0  0  0
  -29.9617   -3.7917   -4.7015 C   0  0  0  0  0  0  0  0  0  0  0  0
  -30.9354   -3.4611   -3.7540 C   0  0  0  0  0  0  0  0  0  0  0  0
  -31.8013   -4.4330   -3.2615 C   0  0  0  0  0  0  0  0  0  0  0  0
  -31.7087   -5.7520   -3.7056 C   0  0  0  0  0  0  0  0  0  0  0  0
  -30.7560   -6.1246   -4.6459 C   0  0  0  0  0  0  0  0  0  0  0  0
  -29.8850   -5.1323   -5.1454 C   0  0  0  0  0  0  0  0  0  0  0  0
  -30.6240   -7.4399   -5.1359 N   0  0  0  0  0  0  0  0  0  0  0  0
  -30.9058   -7.8763   -6.4252 C   0  0  0  0  0  0  0  0  0  0  0  0
  -31.3346   -7.2023   -7.3534 O   0  0  0  0  0  0  0  0  0  0  0  0
  -30.7193   -9.2358   -6.5727 N   0  0  0  0  0  0  0  0  0  0  0  0
  -30.2747   -8.1469   -4.5035 H   0  0  0  0  0  0  0  0  0  0  0  0
  -29.9826   -9.6489   -6.0196 H   0  0  0  0  0  0  0  0  0  0  0  0
  -30.9442   -9.8225   -7.9016 C   0  0  0  0  0  0  0  0  0  0  0  0
  -29.6965   -9.9809   -8.7964 C   0  0  0  0  0  0  0  0  0  0  0  0
  -29.9300  -10.8010   -9.8431 F   0  0  0  0  0  0  0  0  0  0  0  0
  -29.3479   -8.7713   -9.3006 F   0  0  0  0  0  0  0  0  0  0  0  0
  -28.6328  -10.4551   -8.1100 F   0  0  0  0  0  0  0  0  0  0  0  0
  -25.6607   -1.4544  -12.0505 N   0  0  0  0  0  0  0  0  0  0  0  0
  -25.7464   -1.8672  -10.7423 C   0  0  0  0  0  0  0  0  0  0  0  0
  -27.0728   -1.7749  -10.3743 C   0  0  0  0  0  0  0  0  0  0  0  0
  -27.7126   -1.3209  -11.5488 C   0  0  0  0  0  0  0  0  0  0  0  0
  -26.8674   -1.1471  -12.5683 N   0  0  0  0  0  0  0  0  0  0  0  0
  -24.4302   -1.3246  -12.8483 C   0  0  0  0  0  0  0  0  0  0  0  0
  -24.6910   -1.3196  -14.3666 C   0  0  0  0  0  0  0  0  0  0  0  0
  -23.4982   -2.5094  -12.5295 C   0  0  0  0  0  0  0  0  0  0  0  0
  -23.7465   -0.0144  -12.4490 C   0  0  0  0  0  0  0  0  0  0  0  0
  -24.3220    0.9434  -11.9433 O   0  0  0  0  0  0  0  0  0  0  0  0
  -22.4397    0.0005  -12.8429 O   0  0  0  0  0  0  0  0  0  0  0  0
  -21.0886    0.6136  -14.7229 C   0  0  0  0  0  0  0  0  0  0  0  0
  -22.0432    1.1167  -13.6529 C   0  0  0  0  0  0  0  0  0  0  0  0
 38 39  1  0  0  0
 39 37  1  0  0  0
 37 35  1  0  0  0
 35 36  2  0  0  0
 35 32  1  0  0  0
 32 33  1  0  0  0
 32 34  1  0  0  0
 32 27  1  0  0  0
 27 28  1  0  0  0
 27 31  1  0  0  0
 28 29  2  0  0  0
 29  1  1  0  0  0
 29 30  1  0  0  0
  1  2  1  0  0  0
  1  9  2  0  0  0
  2  3  2  0  0  0
  3  4  1  0  0  0
  4  5  1  0  0  0
  4  8  1  0  0  0
  5 10  1  0  0  0
  5  6  2  0  0  0
 10 11  1  0  0  0
 10 15  2  0  0  0
 11 12  2  0  0  0
 12 13  1  0  0  0
 13 14  2  0  0  0
 14 16  1  0  0  0
 14 15  1  0  0  0
 16 17  1  0  0  0
 16 20  1  0  0  0
 17 18  2  0  0  0
 17 19  1  0  0  0
 19 22  1  0  0  0
 19 21  1  0  0  0
 22 23  1  0  0  0
 23 24  1  0  0  0
 23 25  1  0  0  0
 23 26  1  0  0  0
  6  7  1  0  0  0
  7  8  2  0  0  0
  8  9  1  0  0  0
 30 31  2  0  0  0
M  END
> <minimizedAffinity>
-10.56785

$$$$
