CHEMBL3897945


 41 44  0  0  0  0  0  0  0  0999 V2000
  -28.4414   -1.8536   -9.5841 O   0  0  0  0  0  0  0  0  0  0  0  0
  -28.1987   -1.7767   -8.2221 C   0  0  0  0  0  0  0  0  0  0  0  0
  -27.8954   -0.5795   -7.5681 C   0  0  0  0  0  0  0  0  0  0  0  0
  -27.5872   -0.6031   -6.2232 C   0  0  0  0  0  0  0  0  0  0  0  0
  -27.6244   -1.6936   -5.4428 N   0  0  0  0  0  0  0  0  0  0  0  0
  -28.0192   -2.8426   -6.0526 C   0  0  0  0  0  0  0  0  0  0  0  0
  -28.1820   -4.0888   -5.3864 C   0  0  0  0  0  0  0  0  0  0  0  0
  -28.6176   -5.0960   -6.2217 C   0  0  0  0  0  0  0  0  0  0  0  0
  -28.7802   -4.5288   -7.8318 S   0  0  0  0  0  0  0  0  0  0  0  0
  -28.3121   -2.9247   -7.4147 C   0  0  0  0  0  0  0  0  0  0  0  0
  -28.9173   -6.4676   -5.8329 C   0  0  0  0  0  0  0  0  0  0  0  0
  -29.7708   -6.7506   -4.9945 O   0  0  0  0  0  0  0  0  0  0  0  0
  -28.1904   -7.4457   -6.4795 N   0  0  0  0  0  0  0  0  0  0  0  0
  -27.5106   -7.1629   -7.1770 H   0  0  0  0  0  0  0  0  0  0  0  0
  -28.3795   -8.8577   -6.2340 C   0  0  0  0  0  0  0  0  0  0  0  0
  -27.7805   -9.7258   -7.3429 C   0  0  0  0  0  0  0  0  0  0  0  0
  -28.3136   -9.4071   -8.7370 C   0  0  0  0  0  0  0  0  0  0  0  0
  -27.2356   -8.8592   -9.6346 C   0  0  0  0  0  0  0  0  0  0  0  0
  -26.6717   -9.5204  -10.4930 O   0  0  0  0  0  0  0  0  0  0  0  0
  -26.9825   -7.5477   -9.4405 O   0  0  0  0  0  0  0  0  0  0  0  0
  -27.5086   -7.1371   -8.7287 H   0  0  0  0  0  0  0  0  0  0  0  0
  -25.3565   -1.3196  -12.3662 C   0  0  0  0  0  0  0  0  0  0  0  0
  -25.0460   -1.4251  -11.0066 C   0  0  0  0  0  0  0  0  0  0  0  0
  -26.0503   -1.6459  -10.0642 C   0  0  0  0  0  0  0  0  0  0  0  0
  -27.3880   -1.6914  -10.4625 C   0  0  0  0  0  0  0  0  0  0  0  0
  -27.7009   -1.6085  -11.8226 C   0  0  0  0  0  0  0  0  0  0  0  0
  -26.6899   -1.3986  -12.7744 C   0  0  0  0  0  0  0  0  0  0  0  0
  -22.5587   -0.0438  -14.2856 N   0  0  0  0  0  0  0  0  0  0  0  0
  -23.4821   -0.0944  -13.2582 C   0  0  0  0  0  0  0  0  0  0  0  0
  -23.5461    0.6967  -12.3312 O   0  0  0  0  0  0  0  0  0  0  0  0
  -24.3167   -1.2100  -13.3277 N   0  0  0  0  0  0  0  0  0  0  0  0
  -22.4993   -0.8470  -14.8900 H   0  0  0  0  0  0  0  0  0  0  0  0
  -23.8424   -2.0637  -13.5671 H   0  0  0  0  0  0  0  0  0  0  0  0
  -17.8285    1.0676  -15.3042 C   0  0  0  0  0  0  0  0  0  0  0  0
  -19.2155    1.4999  -14.9217 C   0  0  0  0  0  0  0  0  0  0  0  0
  -19.4681    2.8514  -14.6659 C   0  0  0  0  0  0  0  0  0  0  0  0
  -20.7522    3.2667  -14.3415 C   0  0  0  0  0  0  0  0  0  0  0  0
  -21.7878    2.3389  -14.2545 C   0  0  0  0  0  0  0  0  0  0  0  0
  -23.0114    2.8502  -14.0772 F   0  0  0  0  0  0  0  0  0  0  0  0
  -21.5646    0.9650  -14.4435 C   0  0  0  0  0  0  0  0  0  0  0  0
  -20.2663    0.5632  -14.8116 C   0  0  0  0  0  0  0  0  0  0  0  0
 34 35  1  0  0  0
 35 36  1  0  0  0
 35 41  2  0  0  0
 36 37  2  0  0  0
 37 38  1  0  0  0
 38 39  1  0  0  0
 38 40  2  0  0  0
 40 28  1  0  0  0
 40 41  1  0  0  0
 28 29  1  0  0  0
 28 32  1  0  0  0
 29 30  2  0  0  0
 29 31  1  0  0  0
 31 22  1  0  0  0
 31 33  1  0  0  0
 22 23  1  0  0  0
 22 27  2  0  0  0
 23 24  2  0  0  0
 24 25  1  0  0  0
 25  1  1  0  0  0
 25 26  2  0  0  0
  1  2  1  0  0  0
  2  3  1  0  0  0
  2 10  2  0  0  0
  3  4  2  0  0  0
  4  5  1  0  0  0
  5  6  2  0  0  0
  6  7  1  0  0  0
  6 10  1  0  0  0
  7  8  2  0  0  0
  8 11  1  0  0  0
  8  9  1  0  0  0
 11 12  2  0  0  0
 11 13  1  0  0  0
 13 15  1  0  0  0
 13 14  1  0  0  0
 15 16  1  0  0  0
 16 17  1  0  0  0
 17 18  1  0  0  0
 18 19  2  0  0  0
 18 20  1  0  0  0
 20 21  1  0  0  0
  9 10  1  0  0  0
 26 27  1  0  0  0
M  END
> <minimizedAffinity>
-10.53921

$$$$
