CHEMBL3915533


 39 43  0  0  0  0  0  0  0  0999 V2000
  -27.6642   -2.3401   -8.5317 N   0  0  0  0  0  0  0  0  0  0  0  0
  -27.0316   -1.6779   -9.6896 C   0  0  0  0  0  0  0  0  0  0  0  0
  -27.9131   -1.4870  -10.7721 C   0  0  0  0  0  0  0  0  0  0  0  0
  -27.4513   -1.3933  -12.0443 C   0  0  0  0  0  0  0  0  0  0  0  0
  -26.1118   -1.3562  -12.2801 C   0  0  0  0  0  0  0  0  0  0  0  0
  -25.7300   -1.5749  -13.5498 N   0  0  0  0  0  0  0  0  0  0  0  0
  -24.4623   -1.4444  -13.9272 C   0  0  0  0  0  0  0  0  0  0  0  0
  -23.6006   -0.7646  -13.0692 C   0  0  0  0  0  0  0  0  0  0  0  0
  -23.9041   -0.7393  -11.7041 N   0  0  0  0  0  0  0  0  0  0  0  0
  -25.1714   -1.1432  -11.2762 C   0  0  0  0  0  0  0  0  0  0  0  0
  -25.6209   -1.3702   -9.9198 C   0  0  0  0  0  0  0  0  0  0  0  0
  -22.8241    0.2949  -13.8330 C   0  0  0  0  0  0  0  0  0  0  0  0
  -23.1071    1.6732  -13.7116 C   0  0  0  0  0  0  0  0  0  0  0  0
  -22.1215    2.3989  -14.2187 N   0  0  0  0  0  0  0  0  0  0  0  0
  -21.2134    1.5700  -14.6792 N   0  0  0  0  0  0  0  0  0  0  0  0
  -19.9402    2.0790  -15.1594 C   0  0  0  0  0  0  0  0  0  0  0  0
  -21.6035    0.2752  -14.5048 C   0  0  0  0  0  0  0  0  0  0  0  0
  -29.0592    0.2194   -6.0310 C   0  0  0  0  0  0  0  0  0  0  0  0
  -28.8970   -0.4797   -4.8392 C   0  0  0  0  0  0  0  0  0  0  0  0
  -28.3355   -1.7674   -4.8225 C   0  0  0  0  0  0  0  0  0  0  0  0
  -27.9048   -2.3535   -6.0293 C   0  0  0  0  0  0  0  0  0  0  0  0
  -28.0782   -1.7208   -7.2713 C   0  0  0  0  0  0  0  0  0  0  0  0
  -28.6661   -0.4020   -7.2296 C   0  0  0  0  0  0  0  0  0  0  0  0
  -30.8959    1.8166   -6.3937 C   0  0  0  0  0  0  0  0  0  0  0  0
  -29.5885    1.4796   -6.0622 O   0  0  0  0  0  0  0  0  0  0  0  0
  -28.2149   -2.4965   -3.6965 O   0  0  0  0  0  0  0  0  0  0  0  0
  -29.2321   -2.7050   -2.7830 C   0  0  0  0  0  0  0  0  0  0  0  0
  -27.9352   -3.8064   -8.7188 C   0  0  0  0  0  0  0  0  0  0  0  0
  -29.0472   -4.4667   -7.8062 C   0  0  0  0  0  0  0  0  0  0  0  0
  -30.3588   -4.1952   -8.2261 O   0  0  0  0  0  0  0  0  0  0  0  0
  -30.6874   -4.9619   -8.7672 H   0  0  0  0  0  0  0  0  0  0  0  0
  -28.8929   -5.9792   -7.5052 C   0  0  0  0  0  0  0  0  0  0  0  0
  -28.8026   -6.2054   -6.0425 N   0  0  0  0  0  0  0  0  0  0  0  0
  -28.4026   -7.5452   -5.5633 C   0  0  0  0  0  0  0  0  0  0  0  0
  -29.2631   -7.8354   -4.3309 C   0  0  0  0  0  0  0  0  0  0  0  0
  -29.7189   -6.4554   -3.9097 C   0  0  0  0  0  0  0  0  0  0  0  0
  -30.8429   -6.4865   -3.1027 F   0  0  0  0  0  0  0  0  0  0  0  0
  -28.6901   -5.7868   -3.2639 F   0  0  0  0  0  0  0  0  0  0  0  0
  -29.9789   -5.8219   -5.2665 C   0  0  0  0  0  0  0  0  0  0  0  0
 24 25  1  0  0  0
 25 18  1  0  0  0
 18 19  1  0  0  0
 18 23  2  0  0  0
 19 20  2  0  0  0
 20 26  1  0  0  0
 20 21  1  0  0  0
 26 27  1  0  0  0
 21 22  2  0  0  0
 22  1  1  0  0  0
 22 23  1  0  0  0
  1 28  1  0  0  0
  1  2  1  0  0  0
 28 29  1  0  0  0
 29 30  1  0  0  0
 29 32  1  0  0  0
 30 31  1  0  0  0
 32 33  1  0  0  0
 33 34  1  0  0  0
 33 39  1  0  0  0
 34 35  1  0  0  0
 35 36  1  0  0  0
 36 37  1  0  0  0
 36 38  1  0  0  0
 36 39  1  0  0  0
  2  3  1  0  0  0
  2 11  2  0  0  0
  3  4  2  0  0  0
  4  5  1  0  0  0
  5  6  1  0  0  0
  5 10  2  0  0  0
  6  7  2  0  0  0
  7  8  1  0  0  0
  8 12  1  0  0  0
  8  9  2  0  0  0
 12 13  1  0  0  0
 12 17  2  0  0  0
 13 14  2  0  0  0
 14 15  1  0  0  0
 15 16  1  0  0  0
 15 17  1  0  0  0
  9 10  1  0  0  0
 10 11  1  0  0  0
M  END
> <minimizedAffinity>
-9.19107

$$$$
