CHEMBL2086726


 30 34  0  0  0  0  0  0  0  0999 V2000
  -13.2946   -0.4064  -14.2114 O   0  0  0  0  0  0  0  0  0  0  0  0
  -13.7535    0.4156  -14.9794 C   0  0  0  0  0  0  0  0  0  0  0  0
  -13.0348    1.0832  -15.9537 N   0  0  0  0  0  0  0  0  0  0  0  0
  -13.7926    2.0750  -16.5573 C   0  0  0  0  0  0  0  0  0  0  0  0
  -13.3431    2.9591  -17.5211 C   0  0  0  0  0  0  0  0  0  0  0  0
  -14.2384    3.9267  -17.9715 C   0  0  0  0  0  0  0  0  0  0  0  0
  -15.5389    3.9877  -17.4474 C   0  0  0  0  0  0  0  0  0  0  0  0
  -15.9717    3.0736  -16.4736 C   0  0  0  0  0  0  0  0  0  0  0  0
  -15.0913    2.0985  -16.0323 C   0  0  0  0  0  0  0  0  0  0  0  0
  -15.1591    0.9937  -15.0426 C   0  0  0  0  0  0  0  0  0  0  0  0
  -16.2064    0.5020  -14.3374 C   0  0  0  0  0  0  0  0  0  0  0  0
  -12.0591    0.8966  -16.1261 H   0  0  0  0  0  0  0  0  0  0  0  0
  -16.0296   -0.6446  -13.5034 C   0  0  0  0  0  0  0  0  0  0  0  0
  -15.7509   -0.7335  -12.2195 N   0  0  0  0  0  0  0  0  0  0  0  0
  -15.6827   -2.0805  -11.9468 C   0  0  0  0  0  0  0  0  0  0  0  0
  -15.4677   -2.7456  -10.7296 C   0  0  0  0  0  0  0  0  0  0  0  0
  -15.4382   -4.1462  -10.7227 C   0  0  0  0  0  0  0  0  0  0  0  0
  -15.6064   -4.8719  -11.9052 C   0  0  0  0  0  0  0  0  0  0  0  0
  -15.8185   -4.2276  -13.1293 C   0  0  0  0  0  0  0  0  0  0  0  0
  -15.8588   -2.8305  -13.1035 C   0  0  0  0  0  0  0  0  0  0  0  0
  -16.0744   -1.8929  -14.0799 N   0  0  0  0  0  0  0  0  0  0  0  0
  -16.2637   -2.0884  -15.0502 H   0  0  0  0  0  0  0  0  0  0  0  0
  -17.5659    1.0653  -14.4940 C   0  0  0  0  0  0  0  0  0  0  0  0
  -18.5585    0.3355  -15.1631 C   0  0  0  0  0  0  0  0  0  0  0  0
  -19.8361    0.8718  -15.3027 C   0  0  0  0  0  0  0  0  0  0  0  0
  -20.7746    0.1769  -15.9580 F   0  0  0  0  0  0  0  0  0  0  0  0
  -20.1532    2.1175  -14.7797 C   0  0  0  0  0  0  0  0  0  0  0  0
  -19.1720    2.8264  -14.1013 C   0  0  0  0  0  0  0  0  0  0  0  0
  -19.4636    4.0279  -13.5868 F   0  0  0  0  0  0  0  0  0  0  0  0
  -17.8844    2.3169  -13.9507 C   0  0  0  0  0  0  0  0  0  0  0  0
  1  2  2  0  0  0
  2  3  1  0  0  0
  2 10  1  0  0  0
  3  4  1  0  0  0
  3 12  1  0  0  0
  4  5  1  0  0  0
  4  9  2  0  0  0
  5  6  2  0  0  0
  6  7  1  0  0  0
  7  8  2  0  0  0
  8  9  1  0  0  0
  9 10  1  0  0  0
 10 11  2  0  0  0
 11 23  1  0  0  0
 11 13  1  0  0  0
 23 24  1  0  0  0
 23 30  2  0  0  0
 24 25  2  0  0  0
 25 26  1  0  0  0
 25 27  1  0  0  0
 27 28  2  0  0  0
 28 29  1  0  0  0
 28 30  1  0  0  0
 13 14  2  0  0  0
 13 21  1  0  0  0
 14 15  1  0  0  0
 15 16  1  0  0  0
 15 20  2  0  0  0
 16 17  2  0  0  0
 17 18  1  0  0  0
 18 19  2  0  0  0
 19 20  1  0  0  0
 20 21  1  0  0  0
 21 22  1  0  0  0
M  END
> <minimizedAffinity>
-9.02233

$$$$
