CHEMBL1972934


 12 13  0  0  0  0  0  0  0  0999 V2000
  -22.0159   -0.2711  -14.1398 N   0  0  0  0  0  0  0  0  0  0  0  0
  -21.5978    1.0291  -14.2954 C   0  0  0  0  0  0  0  0  0  0  0  0
  -22.4830    2.0005  -14.0074 N   0  0  0  0  0  0  0  0  0  0  0  0
  -22.0919    3.2792  -14.1379 C   0  0  0  0  0  0  0  0  0  0  0  0
  -20.8990    3.7355  -14.5325 N   0  0  0  0  0  0  0  0  0  0  0  0
  -20.0454    2.7376  -14.8149 C   0  0  0  0  0  0  0  0  0  0  0  0
  -18.4554    3.0654  -15.3393 S   0  0  0  0  0  0  0  0  0  0  0  0
  -18.0864    1.4018  -15.4622 C   0  0  0  0  0  0  0  0  0  0  0  0
  -19.1576    0.6092  -15.1091 C   0  0  0  0  0  0  0  0  0  0  0  0
  -20.3089    1.3791  -14.7270 C   0  0  0  0  0  0  0  0  0  0  0  0
  -22.9798   -0.4082  -13.8724 H   0  0  0  0  0  0  0  0  0  0  0  0
  -21.4332   -1.0520  -14.3919 H   0  0  0  0  0  0  0  0  0  0  0  0
  1  2  1  0  0  0
  1 11  1  0  0  0
  1 12  1  0  0  0
  2  3  1  0  0  0
  2 10  2  0  0  0
  3  4  2  0  0  0
  4  5  1  0  0  0
  5  6  2  0  0  0
  6  7  1  0  0  0
  6 10  1  0  0  0
  7  8  1  0  0  0
  8  9  2  0  0  0
  9 10  1  0  0  0
M  END
> <minimizedAffinity>
-5.13076

$$$$
