CHEMBL3977286


 31 34  0  0  0  0  0  0  0  0999 V2000
  -25.7469   -1.2034  -12.3385 C   0  0  0  0  0  0  0  0  0  0  0  0
  -25.2664   -1.6377  -13.5773 C   0  0  0  0  0  0  0  0  0  0  0  0
  -24.1250   -1.0617  -14.1497 C   0  0  0  0  0  0  0  0  0  0  0  0
  -23.4592   -0.0238  -13.5009 C   0  0  0  0  0  0  0  0  0  0  0  0
  -23.9875    0.4827  -12.3121 C   0  0  0  0  0  0  0  0  0  0  0  0
  -25.1322   -0.0972  -11.7391 C   0  0  0  0  0  0  0  0  0  0  0  0
  -26.0333   -1.5342   -9.4709 O   0  0  0  0  0  0  0  0  0  0  0  0
  -26.8783   -1.9537  -10.2503 C   0  0  0  0  0  0  0  0  0  0  0  0
  -26.7926   -1.8556  -11.6349 N   0  0  0  0  0  0  0  0  0  0  0  0
  -28.0538   -2.5767   -9.8491 N   0  0  0  0  0  0  0  0  0  0  0  0
  -27.6494   -2.0047  -12.1458 H   0  0  0  0  0  0  0  0  0  0  0  0
  -28.4864   -3.1899  -10.5240 H   0  0  0  0  0  0  0  0  0  0  0  0
  -28.4801   -2.7019   -8.5015 C   0  0  0  0  0  0  0  0  0  0  0  0
  -29.2781   -3.7629   -8.0497 C   0  0  0  0  0  0  0  0  0  0  0  0
  -29.7289   -3.8121   -6.7278 C   0  0  0  0  0  0  0  0  0  0  0  0
  -29.3724   -2.8039   -5.8444 C   0  0  0  0  0  0  0  0  0  0  0  0
  -29.8382   -2.8511   -4.5879 F   0  0  0  0  0  0  0  0  0  0  0  0
  -28.5450   -1.7651   -6.2638 C   0  0  0  0  0  0  0  0  0  0  0  0
  -28.0967   -0.5125   -5.1693 Cl  0  0  0  0  0  0  0  0  0  0  0  0
  -28.0839   -1.7197   -7.5854 C   0  0  0  0  0  0  0  0  0  0  0  0
  -22.2280    0.4799  -14.0376 C   0  0  0  0  0  0  0  0  0  0  0  0
  -21.2132    0.9593  -14.4728 C   0  0  0  0  0  0  0  0  0  0  0  0
  -19.9812    1.5677  -14.9182 C   0  0  0  0  0  0  0  0  0  0  0  0
  -19.9448    2.9884  -15.3388 C   0  0  0  0  0  0  0  0  0  0  0  0
  -18.7609    3.4757  -15.7303 C   0  0  0  0  0  0  0  0  0  0  0  0
  -17.6321    2.6271  -15.7277 C   0  0  0  0  0  0  0  0  0  0  0  0
  -16.3778    2.8558  -16.0556 N   0  0  0  0  0  0  0  0  0  0  0  0
  -15.7333    1.6575  -15.8580 C   0  0  0  0  0  0  0  0  0  0  0  0
  -16.6064    0.6964  -15.4096 C   0  0  0  0  0  0  0  0  0  0  0  0
  -17.8247    1.3146  -15.3175 N   0  0  0  0  0  0  0  0  0  0  0  0
  -18.9905    0.7340  -14.8969 N   0  0  0  0  0  0  0  0  0  0  0  0
  7  8  2  0  0  0
  8  9  1  0  0  0
  8 10  1  0  0  0
  9  1  1  0  0  0
  9 11  1  0  0  0
  1  2  1  0  0  0
  1  6  2  0  0  0
  2  3  2  0  0  0
  3  4  1  0  0  0
  4 21  1  0  0  0
  4  5  2  0  0  0
 21 22  3  0  0  0
 22 23  1  0  0  0
 23 24  1  0  0  0
 23 31  2  0  0  0
 24 25  2  0  0  0
 25 26  1  0  0  0
 26 27  2  0  0  0
 26 30  1  0  0  0
 27 28  1  0  0  0
 28 29  2  0  0  0
 29 30  1  0  0  0
 30 31  1  0  0  0
  5  6  1  0  0  0
 10 13  1  0  0  0
 10 12  1  0  0  0
 13 14  1  0  0  0
 13 20  2  0  0  0
 14 15  2  0  0  0
 15 16  1  0  0  0
 16 17  1  0  0  0
 16 18  2  0  0  0
 18 19  1  0  0  0
 18 20  1  0  0  0
M  END
> <minimizedAffinity>
-11.84157

$$$$
