CHEMBL3968843


 31 34  0  0  0  0  0  0  0  0999 V2000
  -29.1139   -5.8260   -5.8686 C   0  0  0  0  0  0  0  0  0  0  0  0
  -28.4620   -7.0195   -6.1932 C   0  0  0  0  0  0  0  0  0  0  0  0
  -28.2894   -8.0382   -5.2370 C   0  0  0  0  0  0  0  0  0  0  0  0
  -27.5295   -9.1982   -5.4395 C   0  0  0  0  0  0  0  0  0  0  0  0
  -27.4384  -10.1655   -4.5082 N   0  0  0  0  0  0  0  0  0  0  0  0
  -28.0868   -9.9572   -3.3607 C   0  0  0  0  0  0  0  0  0  0  0  0
  -28.8097   -8.8773   -3.0512 N   0  0  0  0  0  0  0  0  0  0  0  0
  -28.8960   -7.9263   -3.9861 C   0  0  0  0  0  0  0  0  0  0  0  0
  -29.6103   -6.7724   -3.6966 C   0  0  0  0  0  0  0  0  0  0  0  0
  -29.6949   -5.6965   -4.5950 C   0  0  0  0  0  0  0  0  0  0  0  0
  -28.4399   -4.8800   -7.9498 C   0  0  0  0  0  0  0  0  0  0  0  0
  -29.1896   -4.7666   -6.7372 O   0  0  0  0  0  0  0  0  0  0  0  0
  -26.7847   -9.3323   -6.6443 N   0  0  0  0  0  0  0  0  0  0  0  0
  -25.9224   -9.8329   -6.4377 H   0  0  0  0  0  0  0  0  0  0  0  0
  -27.3507   -9.6970   -7.8818 C   0  0  0  0  0  0  0  0  0  0  0  0
  -26.6907   -9.3781   -9.0747 C   0  0  0  0  0  0  0  0  0  0  0  0
  -27.2586   -9.6794  -10.3114 C   0  0  0  0  0  0  0  0  0  0  0  0
  -28.4944  -10.3221  -10.3695 C   0  0  0  0  0  0  0  0  0  0  0  0
  -29.1615  -10.6316  -11.9302 Cl  0  0  0  0  0  0  0  0  0  0  0  0
  -29.1470  -10.6796   -9.1836 C   0  0  0  0  0  0  0  0  0  0  0  0
  -30.6790  -11.4802   -9.1806 Cl  0  0  0  0  0  0  0  0  0  0  0  0
  -28.5683  -10.3717   -7.9409 C   0  0  0  0  0  0  0  0  0  0  0  0
  -30.3274   -4.5114   -4.2771 O   0  0  0  0  0  0  0  0  0  0  0  0
  -29.5055   -3.5239   -3.6210 C   0  0  0  0  0  0  0  0  0  0  0  0
  -29.5876   -2.1799   -4.3655 C   0  0  0  0  0  0  0  0  0  0  0  0
  -28.3166   -1.4280   -4.4146 N   0  0  0  0  0  0  0  0  0  0  0  0
  -28.4445    0.0301   -4.6314 C   0  0  0  0  0  0  0  0  0  0  0  0
  -28.6906    0.4800   -6.0872 C   0  0  0  0  0  0  0  0  0  0  0  0
  -27.7991   -0.1442   -7.0192 O   0  0  0  0  0  0  0  0  0  0  0  0
  -27.8414   -1.5681   -6.8805 C   0  0  0  0  0  0  0  0  0  0  0  0
  -27.4202   -1.9716   -5.4606 C   0  0  0  0  0  0  0  0  0  0  0  0
 11 12  1  0  0  0
 12  1  1  0  0  0
  1  2  1  0  0  0
  1 10  2  0  0  0
  2  3  2  0  0  0
  3  4  1  0  0  0
  3  8  1  0  0  0
  4 13  1  0  0  0
  4  5  2  0  0  0
 13 15  1  0  0  0
 13 14  1  0  0  0
 15 16  1  0  0  0
 15 22  2  0  0  0
 16 17  2  0  0  0
 17 18  1  0  0  0
 18 19  1  0  0  0
 18 20  2  0  0  0
 20 21  1  0  0  0
 20 22  1  0  0  0
  5  6  1  0  0  0
  6  7  2  0  0  0
  7  8  1  0  0  0
  8  9  2  0  0  0
  9 10  1  0  0  0
 10 23  1  0  0  0
 23 24  1  0  0  0
 24 25  1  0  0  0
 25 26  1  0  0  0
 26 27  1  0  0  0
 26 31  1  0  0  0
 27 28  1  0  0  0
 28 29  1  0  0  0
 29 30  1  0  0  0
 30 31  1  0  0  0
M  END
> <minimizedAffinity>
-7.41732

$$$$
