CHEMBL3953606


 39 42  0  0  0  0  0  0  0  0999 V2000
  -28.8447   -5.8546   -5.9660 C   0  0  0  0  0  0  0  0  0  0  0  0
  -28.4556   -4.6843   -5.2912 C   0  0  0  0  0  0  0  0  0  0  0  0
  -28.1556   -3.4951   -5.9599 C   0  0  0  0  0  0  0  0  0  0  0  0
  -27.7920   -2.4044   -5.2843 N   0  0  0  0  0  0  0  0  0  0  0  0
  -27.5521   -1.2984   -6.0006 C   0  0  0  0  0  0  0  0  0  0  0  0
  -27.6661   -1.1712   -7.3294 N   0  0  0  0  0  0  0  0  0  0  0  0
  -28.0418   -2.2668   -8.0039 C   0  0  0  0  0  0  0  0  0  0  0  0
  -28.2691   -3.4852   -7.3496 C   0  0  0  0  0  0  0  0  0  0  0  0
  -28.6184   -4.6619   -8.0365 C   0  0  0  0  0  0  0  0  0  0  0  0
  -28.9332   -5.8404   -7.3682 C   0  0  0  0  0  0  0  0  0  0  0  0
  -28.2518   -2.2122   -9.4140 N   0  0  0  0  0  0  0  0  0  0  0  0
  -29.1581   -1.7829   -9.5897 H   0  0  0  0  0  0  0  0  0  0  0  0
  -27.3437   -1.9054  -10.4434 C   0  0  0  0  0  0  0  0  0  0  0  0
  -25.9954   -1.6450  -10.2025 C   0  0  0  0  0  0  0  0  0  0  0  0
  -25.1191   -1.3620  -11.2527 C   0  0  0  0  0  0  0  0  0  0  0  0
  -25.5716   -1.3861  -12.5706 C   0  0  0  0  0  0  0  0  0  0  0  0
  -24.4428   -0.9998  -13.8187 Cl  0  0  0  0  0  0  0  0  0  0  0  0
  -26.9017   -1.7216  -12.8360 C   0  0  0  0  0  0  0  0  0  0  0  0
  -27.5314   -1.8180  -14.4431 Cl  0  0  0  0  0  0  0  0  0  0  0  0
  -27.7744   -1.9948  -11.7782 C   0  0  0  0  0  0  0  0  0  0  0  0
  -29.3877   -6.9296   -8.0644 O   0  0  0  0  0  0  0  0  0  0  0  0
  -28.4143   -7.8720   -8.5015 C   0  0  0  0  0  0  0  0  0  0  0  0
  -29.1325   -6.8993   -5.1203 O   0  0  0  0  0  0  0  0  0  0  0  0
  -28.0962   -7.8646   -4.9498 C   0  0  0  0  0  0  0  0  0  0  0  0
  -25.4048   -9.9877   -5.0700 C   0  0  0  0  0  0  0  0  0  0  0  0
  -24.7148   -9.1302   -4.4959 O   0  0  0  0  0  0  0  0  0  0  0  0
  -26.5808  -10.3881   -4.4593 N   0  0  0  0  0  0  0  0  0  0  0  0
  -27.5674  -11.3991   -4.8436 C   0  0  0  0  0  0  0  0  0  0  0  0
  -28.8931  -10.7523   -5.2523 C   0  0  0  0  0  0  0  0  0  0  0  0
  -29.3814   -9.8656   -4.2312 O   0  0  0  0  0  0  0  0  0  0  0  0
  -28.4140   -8.8626   -3.8261 C   0  0  0  0  0  0  0  0  0  0  0  0
  -27.1093   -9.5519   -3.3602 C   0  0  0  0  0  0  0  0  0  0  0  0
  -24.9942  -10.3705   -6.5236 C   0  0  0  0  0  0  0  0  0  0  0  0
  -26.0167  -10.4287   -7.6592 C   0  0  0  0  0  0  0  0  0  0  0  0
  -25.6794  -11.4059   -8.7670 C   0  0  0  0  0  0  0  0  0  0  0  0
  -24.1098  -11.6682   -6.4765 C   0  0  0  0  0  0  0  0  0  0  0  0
  -22.7602  -11.5260   -5.7545 C   0  0  0  0  0  0  0  0  0  0  0  0
  -22.0330  -12.1855   -8.0698 C   0  0  0  0  0  0  0  0  0  0  0  0
  -21.5647  -11.8055   -6.6701 C   0  0  0  0  0  0  0  0  0  0  0  0
 38 39  1  0  0  0
 39 37  1  0  0  0
 37 36  1  0  0  0
 36 33  1  0  0  0
 33 34  1  0  0  0
 33 25  1  0  0  0
 34 35  1  0  0  0
 25 26  2  0  0  0
 25 27  1  0  0  0
 27 28  1  0  0  0
 27 32  1  0  0  0
 28 29  1  0  0  0
 29 30  1  0  0  0
 30 31  1  0  0  0
 31 24  1  0  0  0
 31 32  1  0  0  0
 24 23  1  0  0  0
 23  1  1  0  0  0
  1  2  1  0  0  0
  1 10  2  0  0  0
  2  3  2  0  0  0
  3  4  1  0  0  0
  3  8  1  0  0  0
  4  5  2  0  0  0
  5  6  1  0  0  0
  6  7  2  0  0  0
  7 11  1  0  0  0
  7  8  1  0  0  0
 11 13  1  0  0  0
 11 12  1  0  0  0
 13 14  1  0  0  0
 13 20  2  0  0  0
 14 15  2  0  0  0
 15 16  1  0  0  0
 16 17  1  0  0  0
 16 18  2  0  0  0
 18 19  1  0  0  0
 18 20  1  0  0  0
  8  9  2  0  0  0
  9 10  1  0  0  0
 10 21  1  0  0  0
 21 22  1  0  0  0
M  END
> <minimizedAffinity>
-8.26823

$$$$
