CHEMBL3690580


 36 39  0  0  0  0  0  0  0  0999 V2000
  -29.2754   -8.9641   -5.6358 C   0  0  0  0  0  0  0  0  0  0  0  0
  -30.2859   -8.9341   -6.5871 C   0  0  0  0  0  0  0  0  0  0  0  0
  -30.6408   -7.6569   -6.9309 N   0  0  0  0  0  0  0  0  0  0  0  0
  -29.8596   -6.8784   -6.2189 C   0  0  0  0  0  0  0  0  0  0  0  0
  -29.7810   -5.4544   -6.1526 C   0  0  0  0  0  0  0  0  0  0  0  0
  -28.8711   -4.8521   -5.3542 C   0  0  0  0  0  0  0  0  0  0  0  0
  -27.9422   -5.6593   -4.5667 C   0  0  0  0  0  0  0  0  0  0  0  0
  -28.0002   -6.9992   -4.6406 C   0  0  0  0  0  0  0  0  0  0  0  0
  -28.9723   -7.6167   -5.4348 N   0  0  0  0  0  0  0  0  0  0  0  0
  -26.6782  -11.5834   -4.7101 C   0  0  0  0  0  0  0  0  0  0  0  0
  -27.3031  -12.1812   -3.6162 C   0  0  0  0  0  0  0  0  0  0  0  0
  -28.5926  -11.8103   -3.2507 C   0  0  0  0  0  0  0  0  0  0  0  0
  -29.2597  -10.8161   -3.9571 C   0  0  0  0  0  0  0  0  0  0  0  0
  -28.6221  -10.1123   -4.9869 C   0  0  0  0  0  0  0  0  0  0  0  0
  -27.3398  -10.5394   -5.3832 C   0  0  0  0  0  0  0  0  0  0  0  0
  -24.0376  -10.2294   -4.4838 O   0  0  0  0  0  0  0  0  0  0  0  0
  -24.2143  -11.3083   -5.0316 C   0  0  0  0  0  0  0  0  0  0  0  0
  -23.1571  -12.0134   -5.5655 N   0  0  0  0  0  0  0  0  0  0  0  0
  -25.4081  -11.9862   -5.1843 N   0  0  0  0  0  0  0  0  0  0  0  0
  -23.3751  -12.6234   -6.3397 H   0  0  0  0  0  0  0  0  0  0  0  0
  -25.3568  -12.8915   -5.6254 H   0  0  0  0  0  0  0  0  0  0  0  0
  -21.8376  -11.3700   -5.6013 C   0  0  0  0  0  0  0  0  0  0  0  0
  -21.5554  -10.5339   -6.8605 C   0  0  0  0  0  0  0  0  0  0  0  0
  -22.2626   -9.3791   -6.8684 F   0  0  0  0  0  0  0  0  0  0  0  0
  -20.2487  -10.2282   -6.9950 F   0  0  0  0  0  0  0  0  0  0  0  0
  -21.9270  -11.2242   -7.9674 F   0  0  0  0  0  0  0  0  0  0  0  0
  -28.8225   -3.3874   -5.3322 C   0  0  0  0  0  0  0  0  0  0  0  0
  -27.6842   -2.6818   -5.0047 C   0  0  0  0  0  0  0  0  0  0  0  0
  -27.6142   -1.3327   -4.9852 N   0  0  0  0  0  0  0  0  0  0  0  0
  -28.7409   -0.6476   -5.3131 C   0  0  0  0  0  0  0  0  0  0  0  0
  -29.9000   -1.2590   -5.6708 N   0  0  0  0  0  0  0  0  0  0  0  0
  -29.9094   -2.6095   -5.6723 C   0  0  0  0  0  0  0  0  0  0  0  0
  -28.7155    0.8873   -5.2670 C   0  0  0  0  0  0  0  0  0  0  0  0
  -27.8678    1.4006   -4.3245 F   0  0  0  0  0  0  0  0  0  0  0  0
  -28.3242    1.4526   -6.4491 F   0  0  0  0  0  0  0  0  0  0  0  0
  -29.9379    1.4327   -4.9856 F   0  0  0  0  0  0  0  0  0  0  0  0
 16 17  2  0  0  0
 17 18  1  0  0  0
 17 19  1  0  0  0
 18 22  1  0  0  0
 18 20  1  0  0  0
 22 23  1  0  0  0
 23 24  1  0  0  0
 23 25  1  0  0  0
 23 26  1  0  0  0
 19 10  1  0  0  0
 19 21  1  0  0  0
 10 11  1  0  0  0
 10 15  2  0  0  0
 11 12  2  0  0  0
 12 13  1  0  0  0
 13 14  2  0  0  0
 14  1  1  0  0  0
 14 15  1  0  0  0
  1  2  2  0  0  0
  1  9  1  0  0  0
  2  3  1  0  0  0
  3  4  2  0  0  0
  4  5  1  0  0  0
  4  9  1  0  0  0
  5  6  2  0  0  0
  6 27  1  0  0  0
  6  7  1  0  0  0
 27 28  1  0  0  0
 27 32  2  0  0  0
 28 29  2  0  0  0
 29 30  1  0  0  0
 30 33  1  0  0  0
 30 31  2  0  0  0
 33 34  1  0  0  0
 33 35  1  0  0  0
 33 36  1  0  0  0
 31 32  1  0  0  0
  7  8  2  0  0  0
  8  9  1  0  0  0
M  END
> <minimizedAffinity>
-9.34191

$$$$
