CHEMBL3978453


 37 40  0  0  0  0  0  0  0  0999 V2000
  -28.8375  -10.0096   -5.5613 N   0  0  0  0  0  0  0  0  0  0  0  0
  -28.7092   -8.6055   -5.2077 C   0  0  0  0  0  0  0  0  0  0  0  0
  -28.9724   -8.3241   -3.8725 C   0  0  0  0  0  0  0  0  0  0  0  0
  -29.4483   -7.0866   -3.5068 C   0  0  0  0  0  0  0  0  0  0  0  0
  -29.5207   -6.0495   -4.4110 C   0  0  0  0  0  0  0  0  0  0  0  0
  -30.1678   -4.9689   -3.9598 N   0  0  0  0  0  0  0  0  0  0  0  0
  -30.0971   -3.8652   -4.7112 C   0  0  0  0  0  0  0  0  0  0  0  0
  -29.3351   -3.8149   -5.8617 C   0  0  0  0  0  0  0  0  0  0  0  0
  -28.7749   -4.9521   -6.4016 N   0  0  0  0  0  0  0  0  0  0  0  0
  -28.9209   -6.1503   -5.6882 C   0  0  0  0  0  0  0  0  0  0  0  0
  -28.5722   -7.4964   -6.0904 C   0  0  0  0  0  0  0  0  0  0  0  0
  -29.0023   -2.4678   -6.3363 C   0  0  0  0  0  0  0  0  0  0  0  0
  -27.9432   -2.0671   -7.1976 C   0  0  0  0  0  0  0  0  0  0  0  0
  -27.7398   -0.7445   -7.2028 N   0  0  0  0  0  0  0  0  0  0  0  0
  -28.6546   -0.2848   -6.3325 N   0  0  0  0  0  0  0  0  0  0  0  0
  -28.9095    1.1335   -6.2251 C   0  0  0  0  0  0  0  0  0  0  0  0
  -29.3199   -1.2875   -5.6794 C   0  0  0  0  0  0  0  0  0  0  0  0
  -31.7291  -11.4074   -7.5131 C   0  0  0  0  0  0  0  0  0  0  0  0
  -31.2028  -11.4520   -8.8015 C   0  0  0  0  0  0  0  0  0  0  0  0
  -29.8795  -11.0805   -9.0167 C   0  0  0  0  0  0  0  0  0  0  0  0
  -29.0819  -10.6798   -7.9354 C   0  0  0  0  0  0  0  0  0  0  0  0
  -29.5704  -10.6187   -6.6177 C   0  0  0  0  0  0  0  0  0  0  0  0
  -30.9115  -11.0133   -6.4304 C   0  0  0  0  0  0  0  0  0  0  0  0
  -33.2838  -12.4659   -6.0306 C   0  0  0  0  0  0  0  0  0  0  0  0
  -33.0441  -11.6913   -7.2079 O   0  0  0  0  0  0  0  0  0  0  0  0
  -29.2553  -11.0363  -10.2366 O   0  0  0  0  0  0  0  0  0  0  0  0
  -27.8546  -11.2895  -10.2573 C   0  0  0  0  0  0  0  0  0  0  0  0
  -28.7567  -10.8115   -4.2714 C   0  0  0  0  0  0  0  0  0  0  0  0
  -27.5319  -11.7605   -4.1269 C   0  0  0  0  0  0  0  0  0  0  0  0
  -26.9273  -12.0982   -5.3868 O   0  0  0  0  0  0  0  0  0  0  0  0
  -27.2191  -11.4554   -6.0524 H   0  0  0  0  0  0  0  0  0  0  0  0
  -26.4271  -11.0832   -3.2643 C   0  0  0  0  0  0  0  0  0  0  0  0
  -25.0778  -11.2830   -3.8138 N   0  0  0  0  0  0  0  0  0  0  0  0
  -25.1576  -11.7901   -4.6967 H   0  0  0  0  0  0  0  0  0  0  0  0
  -24.3277  -10.0400   -4.0569 C   0  0  0  0  0  0  0  0  0  0  0  0
  -23.7744   -9.9124   -5.4789 C   0  0  0  0  0  0  0  0  0  0  0  0
  -25.2842   -8.8719   -3.7783 C   0  0  0  0  0  0  0  0  0  0  0  0
 24 25  1  0  0  0
 25 18  1  0  0  0
 18 19  1  0  0  0
 18 23  2  0  0  0
 19 20  2  0  0  0
 20 26  1  0  0  0
 20 21  1  0  0  0
 26 27  1  0  0  0
 21 22  2  0  0  0
 22  1  1  0  0  0
 22 23  1  0  0  0
  1 28  1  0  0  0
  1  2  1  0  0  0
 28 29  1  0  0  0
 29 30  1  0  0  0
 29 32  1  0  0  0
 30 31  1  0  0  0
 32 33  1  0  0  0
 33 35  1  0  0  0
 33 34  1  0  0  0
 35 36  1  0  0  0
 35 37  1  0  0  0
  2  3  1  0  0  0
  2 11  2  0  0  0
  3  4  2  0  0  0
  4  5  1  0  0  0
  5  6  1  0  0  0
  5 10  2  0  0  0
  6  7  2  0  0  0
  7  8  1  0  0  0
  8 12  1  0  0  0
  8  9  2  0  0  0
 12 13  1  0  0  0
 12 17  2  0  0  0
 13 14  2  0  0  0
 14 15  1  0  0  0
 15 16  1  0  0  0
 15 17  1  0  0  0
  9 10  1  0  0  0
 10 11  1  0  0  0
M  END
> <minimizedAffinity>
-7.31900

$$$$
