CHEMBL373001


 21 23  0  0  0  0  0  0  0  0999 V2000
  -16.2079    0.4950  -14.7918 C   0  0  0  0  0  0  0  0  0  0  0  0
  -15.1783    0.7752  -15.3985 O   0  0  0  0  0  0  0  0  0  0  0  0
  -16.3047   -0.6328  -14.0027 N   0  0  0  0  0  0  0  0  0  0  0  0
  -17.1808   -0.8147  -13.5333 H   0  0  0  0  0  0  0  0  0  0  0  0
  -22.0206    1.4570  -14.0751 C   0  0  0  0  0  0  0  0  0  0  0  0
  -20.9151    2.3170  -14.5530 C   0  0  0  0  0  0  0  0  0  0  0  0
  -21.1492    3.5980  -14.9240 N   0  0  0  0  0  0  0  0  0  0  0  0
  -19.9257    4.0735  -15.2957 N   0  0  0  0  0  0  0  0  0  0  0  0
  -18.9676    3.1344  -15.1660 C   0  0  0  0  0  0  0  0  0  0  0  0
  -17.3385    2.9933  -15.4096 S   0  0  0  0  0  0  0  0  0  0  0  0
  -17.4060    1.3260  -14.8547 C   0  0  0  0  0  0  0  0  0  0  0  0
  -18.7132    0.9514  -14.5073 C   0  0  0  0  0  0  0  0  0  0  0  0
  -19.5625    2.0345  -14.7051 C   0  0  0  0  0  0  0  0  0  0  0  0
  -19.8486    5.0325  -15.6156 H   0  0  0  0  0  0  0  0  0  0  0  0
  -15.2150   -1.5590  -13.8036 C   0  0  0  0  0  0  0  0  0  0  0  0
  -15.6592   -2.8054  -13.0784 C   0  0  0  0  0  0  0  0  0  0  0  0
  -15.7367   -2.8185  -11.6779 C   0  0  0  0  0  0  0  0  0  0  0  0
  -16.2177   -3.9406  -11.0008 C   0  0  0  0  0  0  0  0  0  0  0  0
  -16.6307   -5.0629  -11.7151 C   0  0  0  0  0  0  0  0  0  0  0  0
  -16.5516   -5.0684  -13.1062 C   0  0  0  0  0  0  0  0  0  0  0  0
  -16.0669   -3.9471  -13.7854 C   0  0  0  0  0  0  0  0  0  0  0  0
  5  6  1  0  0  0
  6  7  2  0  0  0
  6 13  1  0  0  0
  7  8  1  0  0  0
  8  9  1  0  0  0
  8 14  1  0  0  0
  9 10  1  0  0  0
  9 13  2  0  0  0
 10 11  1  0  0  0
 11  1  1  0  0  0
 11 12  2  0  0  0
  1  2  2  0  0  0
  1  3  1  0  0  0
  3 15  1  0  0  0
  3  4  1  0  0  0
 15 16  1  0  0  0
 16 17  1  0  0  0
 16 21  2  0  0  0
 17 18  2  0  0  0
 18 19  1  0  0  0
 19 20  2  0  0  0
 20 21  1  0  0  0
 12 13  1  0  0  0
M  END
> <minimizedAffinity>
-7.93477

$$$$
