CHEMBL3657546


 32 36  0  0  0  0  0  0  0  0999 V2000
  -28.2868   -8.8126   -6.3893 C   0  0  0  0  0  0  0  0  0  0  0  0
  -28.7593   -9.2172   -7.6172 C   0  0  0  0  0  0  0  0  0  0  0  0
  -29.8890   -8.5701   -8.0445 C   0  0  0  0  0  0  0  0  0  0  0  0
  -30.4931   -7.5864   -7.3526 N   0  0  0  0  0  0  0  0  0  0  0  0
  -29.9554   -7.2273   -6.1760 C   0  0  0  0  0  0  0  0  0  0  0  0
  -28.8751   -7.8267   -5.6569 N   0  0  0  0  0  0  0  0  0  0  0  0
  -24.7116   -9.9513   -3.2845 C   0  0  0  0  0  0  0  0  0  0  0  0
  -25.5088   -9.9308   -4.5423 C   0  0  0  0  0  0  0  0  0  0  0  0
  -26.5468   -9.0916   -4.6747 N   0  0  0  0  0  0  0  0  0  0  0  0
  -27.1404   -9.4677   -5.8388 N   0  0  0  0  0  0  0  0  0  0  0  0
  -26.5062  -10.5587   -6.3895 C   0  0  0  0  0  0  0  0  0  0  0  0
  -25.3513  -10.7852   -5.6721 C   0  0  0  0  0  0  0  0  0  0  0  0
  -24.2880  -11.8165   -5.8836 C   0  0  0  0  0  0  0  0  0  0  0  0
  -23.3626  -11.5272   -7.0019 N   0  0  0  0  0  0  0  0  0  0  0  0
  -22.0105  -12.1665   -6.9404 C   0  0  0  0  0  0  0  0  0  0  0  0
  -21.5326  -11.0393   -6.0071 C   0  0  0  0  0  0  0  0  0  0  0  0
  -21.6268  -11.2772   -4.5792 O   0  0  0  0  0  0  0  0  0  0  0  0
  -22.6658  -10.2303   -6.6966 C   0  0  0  0  0  0  0  0  0  0  0  0
  -21.8036  -12.2341   -4.4924 H   0  0  0  0  0  0  0  0  0  0  0  0
  -30.6082   -6.1676   -5.5456 N   0  0  0  0  0  0  0  0  0  0  0  0
  -31.5952   -6.3847   -5.5186 H   0  0  0  0  0  0  0  0  0  0  0  0
  -30.2443   -4.8675   -5.1659 C   0  0  0  0  0  0  0  0  0  0  0  0
  -30.6589   -4.2679   -3.9701 C   0  0  0  0  0  0  0  0  0  0  0  0
  -30.2890   -2.9615   -3.6127 C   0  0  0  0  0  0  0  0  0  0  0  0
  -29.5814   -2.2344   -4.5621 C   0  0  0  0  0  0  0  0  0  0  0  0
  -29.2509   -0.9171   -4.4624 O   0  0  0  0  0  0  0  0  0  0  0  0
  -28.6688   -0.5636   -5.6454 C   0  0  0  0  0  0  0  0  0  0  0  0
  -28.3780    0.8720   -5.8355 C   0  0  0  0  0  0  0  0  0  0  0  0
  -28.5360   -1.6724   -6.4555 C   0  0  0  0  0  0  0  0  0  0  0  0
  -27.8655   -1.7311   -8.0152 Cl  0  0  0  0  0  0  0  0  0  0  0  0
  -29.1625   -2.7540   -5.7791 C   0  0  0  0  0  0  0  0  0  0  0  0
  -29.4638   -4.1036   -6.0648 C   0  0  0  0  0  0  0  0  0  0  0  0
  7  8  1  0  0  0
  8  9  2  0  0  0
  8 12  1  0  0  0
  9 10  1  0  0  0
 10  1  1  0  0  0
 10 11  1  0  0  0
  1  2  1  0  0  0
  1  6  2  0  0  0
  2  3  2  0  0  0
  3  4  1  0  0  0
  4  5  2  0  0  0
  5 20  1  0  0  0
  5  6  1  0  0  0
 20 22  1  0  0  0
 20 21  1  0  0  0
 22 23  1  0  0  0
 22 32  2  0  0  0
 23 24  2  0  0  0
 24 25  1  0  0  0
 25 26  1  0  0  0
 25 31  2  0  0  0
 26 27  1  0  0  0
 27 28  1  0  0  0
 27 29  2  0  0  0
 29 30  1  0  0  0
 29 31  1  0  0  0
 31 32  1  0  0  0
 11 12  2  0  0  0
 12 13  1  0  0  0
 13 14  1  0  0  0
 14 15  1  0  0  0
 14 18  1  0  0  0
 15 16  1  0  0  0
 16 17  1  0  0  0
 16 18  1  0  0  0
 17 19  1  0  0  0
M  END
> <minimizedAffinity>
-8.68078

$$$$
