CHEMBL521652


 36 39  0  0  0  0  0  0  0  0999 V2000
  -28.1286   -2.1551  -12.3743 C   0  0  0  0  0  0  0  0  0  0  0  0
  -26.7744   -1.6182  -12.7565 C   0  0  0  0  0  0  0  0  0  0  0  0
  -26.3659   -1.7942  -14.0900 C   0  0  0  0  0  0  0  0  0  0  0  0
  -25.1393   -1.3092  -14.5470 C   0  0  0  0  0  0  0  0  0  0  0  0
  -24.2779   -0.6574  -13.6779 C   0  0  0  0  0  0  0  0  0  0  0  0
  -24.6626   -0.5207  -12.3385 C   0  0  0  0  0  0  0  0  0  0  0  0
  -25.9064   -0.9746  -11.8473 C   0  0  0  0  0  0  0  0  0  0  0  0
  -23.0421   -0.0817  -14.0647 N   0  0  0  0  0  0  0  0  0  0  0  0
  -22.6967    1.2544  -13.9801 C   0  0  0  0  0  0  0  0  0  0  0  0
  -23.4330    2.1662  -13.6063 O   0  0  0  0  0  0  0  0  0  0  0  0
  -22.3506   -0.7387  -14.3966 H   0  0  0  0  0  0  0  0  0  0  0  0
  -21.3005    1.6225  -14.3660 C   0  0  0  0  0  0  0  0  0  0  0  0
  -20.3498    0.6971  -14.8103 C   0  0  0  0  0  0  0  0  0  0  0  0
  -19.0662    1.1304  -15.1790 C   0  0  0  0  0  0  0  0  0  0  0  0
  -18.7229    2.4891  -15.1101 C   0  0  0  0  0  0  0  0  0  0  0  0
  -19.6823    3.4182  -14.6982 C   0  0  0  0  0  0  0  0  0  0  0  0
  -20.9592    2.9849  -14.3287 C   0  0  0  0  0  0  0  0  0  0  0  0
  -17.3592    2.9119  -15.5286 C   0  0  0  0  0  0  0  0  0  0  0  0
  -16.5139    2.0893  -15.8704 O   0  0  0  0  0  0  0  0  0  0  0  0
  -17.0911    4.2609  -15.4802 N   0  0  0  0  0  0  0  0  0  0  0  0
  -15.7602    4.6370  -15.7739 O   0  0  0  0  0  0  0  0  0  0  0  0
  -17.6466    4.9360  -14.9672 H   0  0  0  0  0  0  0  0  0  0  0  0
  -15.3539    3.7807  -16.0330 H   0  0  0  0  0  0  0  0  0  0  0  0
  -26.3121   -0.7382  -10.5119 N   0  0  0  0  0  0  0  0  0  0  0  0
  -25.9572    0.1145  -10.1024 H   0  0  0  0  0  0  0  0  0  0  0  0
  -26.9013   -1.6189   -9.6629 C   0  0  0  0  0  0  0  0  0  0  0  0
  -26.8776   -2.9302   -9.7465 N   0  0  0  0  0  0  0  0  0  0  0  0
  -27.5744   -3.5053   -8.7174 C   0  0  0  0  0  0  0  0  0  0  0  0
  -28.1402   -2.6389   -7.8043 C   0  0  0  0  0  0  0  0  0  0  0  0
  -27.7702   -1.0304   -8.2883 S   0  0  0  0  0  0  0  0  0  0  0  0
  -28.9288   -2.9491   -6.6113 C   0  0  0  0  0  0  0  0  0  0  0  0
  -29.0289   -2.0281   -5.5593 C   0  0  0  0  0  0  0  0  0  0  0  0
  -29.7348   -2.3547   -4.4030 C   0  0  0  0  0  0  0  0  0  0  0  0
  -30.3312   -3.6009   -4.3317 C   0  0  0  0  0  0  0  0  0  0  0  0
  -30.2701   -4.5164   -5.3191 N   0  0  0  0  0  0  0  0  0  0  0  0
  -29.5720   -4.1718   -6.4290 C   0  0  0  0  0  0  0  0  0  0  0  0
  1  2  1  0  0  0
  2  3  1  0  0  0
  2  7  2  0  0  0
  3  4  2  0  0  0
  4  5  1  0  0  0
  5  8  1  0  0  0
  5  6  2  0  0  0
  8  9  1  0  0  0
  8 11  1  0  0  0
  9 10  2  0  0  0
  9 12  1  0  0  0
 12 13  1  0  0  0
 12 17  2  0  0  0
 13 14  2  0  0  0
 14 15  1  0  0  0
 15 18  1  0  0  0
 15 16  2  0  0  0
 18 19  2  0  0  0
 18 20  1  0  0  0
 20 21  1  0  0  0
 20 22  1  0  0  0
 21 23  1  0  0  0
 16 17  1  0  0  0
  6  7  1  0  0  0
  7 24  1  0  0  0
 24 26  1  0  0  0
 24 25  1  0  0  0
 26 27  2  0  0  0
 26 30  1  0  0  0
 27 28  1  0  0  0
 28 29  2  0  0  0
 29 31  1  0  0  0
 29 30  1  0  0  0
 31 32  1  0  0  0
 31 36  2  0  0  0
 32 33  2  0  0  0
 33 34  1  0  0  0
 34 35  2  0  0  0
 35 36  1  0  0  0
M  END
> <minimizedAffinity>
-10.57959

$$$$
