CHEMBL4522594


 27 29  0  0  0  0  0  0  0  0999 V2000
  -27.6481   -1.9318   -9.0644 C   0  0  0  0  0  0  0  0  0  0  0  0
  -28.3027   -3.1327   -8.7582 C   0  0  0  0  0  0  0  0  0  0  0  0
  -28.8988   -3.3034   -7.4983 C   0  0  0  0  0  0  0  0  0  0  0  0
  -28.8437   -2.2765   -6.5532 C   0  0  0  0  0  0  0  0  0  0  0  0
  -28.1980   -1.0828   -6.8545 C   0  0  0  0  0  0  0  0  0  0  0  0
  -27.6014   -0.9119   -8.1017 C   0  0  0  0  0  0  0  0  0  0  0  0
  -25.5408   -1.5738  -10.2690 N   0  0  0  0  0  0  0  0  0  0  0  0
  -26.9198   -1.6833  -10.3430 C   0  0  0  0  0  0  0  0  0  0  0  0
  -27.5903   -1.6162  -11.3683 O   0  0  0  0  0  0  0  0  0  0  0  0
  -25.0675   -1.7141   -9.3879 H   0  0  0  0  0  0  0  0  0  0  0  0
  -23.1041    0.4727  -14.0184 C   0  0  0  0  0  0  0  0  0  0  0  0
  -23.6238   -0.4590  -13.0468 N   0  0  0  0  0  0  0  0  0  0  0  0
  -24.4534   -0.1658  -12.0068 C   0  0  0  0  0  0  0  0  0  0  0  0
  -24.7264   -1.3536  -11.3718 C   0  0  0  0  0  0  0  0  0  0  0  0
  -23.9870   -2.3080  -12.1078 C   0  0  0  0  0  0  0  0  0  0  0  0
  -23.3128   -1.7667  -13.1293 N   0  0  0  0  0  0  0  0  0  0  0  0
  -29.3829   -2.4336   -5.2498 N   0  0  0  0  0  0  0  0  0  0  0  0
  -30.3898   -2.5635   -5.1596 H   0  0  0  0  0  0  0  0  0  0  0  0
  -28.5478   -3.3991   -4.1410 S   0  0  0  0  0  0  0  0  0  0  0  0
  -27.1468   -3.2646   -4.4851 O   0  0  0  0  0  0  0  0  0  0  0  0
  -29.0120   -3.0848   -2.8063 O   0  0  0  0  0  0  0  0  0  0  0  0
  -29.0396   -5.0610   -4.5414 C   0  0  0  0  0  0  0  0  0  0  0  0
  -30.3809   -5.3487   -4.8111 C   0  0  0  0  0  0  0  0  0  0  0  0
  -30.7414   -6.6362   -5.2171 C   0  0  0  0  0  0  0  0  0  0  0  0
  -29.7671   -7.6264   -5.3574 C   0  0  0  0  0  0  0  0  0  0  0  0
  -28.4292   -7.3364   -5.0871 C   0  0  0  0  0  0  0  0  0  0  0  0
  -28.0607   -6.0518   -4.6846 C   0  0  0  0  0  0  0  0  0  0  0  0
 11 12  1  0  0  0
 12 13  1  0  0  0
 12 16  1  0  0  0
 13 14  2  0  0  0
 14  7  1  0  0  0
 14 15  1  0  0  0
  7  8  1  0  0  0
  7 10  1  0  0  0
  8  9  2  0  0  0
  8  1  1  0  0  0
  1  2  1  0  0  0
  1  6  2  0  0  0
  2  3  2  0  0  0
  3  4  1  0  0  0
  4 17  1  0  0  0
  4  5  2  0  0  0
 17 19  1  0  0  0
 17 18  1  0  0  0
 19 20  2  0  0  0
 19 21  2  0  0  0
 19 22  1  0  0  0
 22 23  1  0  0  0
 22 27  2  0  0  0
 23 24  2  0  0  0
 24 25  1  0  0  0
 25 26  2  0  0  0
 26 27  1  0  0  0
  5  6  1  0  0  0
 15 16  2  0  0  0
M  END
> <minimizedAffinity>
-8.29910

$$$$
