CHEMBL3656089


 44 47  0  0  0  0  0  0  0  0999 V2000
  -28.8792   -5.2240   -4.3670 C   0  0  0  0  0  0  0  0  0  0  0  0
  -30.1365   -5.7161   -4.0287 C   0  0  0  0  0  0  0  0  0  0  0  0
  -30.3232   -7.0855   -4.0361 C   0  0  0  0  0  0  0  0  0  0  0  0
  -29.3423   -7.9749   -4.2940 N   0  0  0  0  0  0  0  0  0  0  0  0
  -28.1070   -7.4761   -4.5485 C   0  0  0  0  0  0  0  0  0  0  0  0
  -27.8344   -6.1164   -4.5980 C   0  0  0  0  0  0  0  0  0  0  0  0
  -27.0888   -8.5015   -4.7596 C   0  0  0  0  0  0  0  0  0  0  0  0
  -26.0371   -8.9581   -3.9802 C   0  0  0  0  0  0  0  0  0  0  0  0
  -25.3505   -9.9963   -4.6867 C   0  0  0  0  0  0  0  0  0  0  0  0
  -26.0262  -10.1370   -5.8872 C   0  0  0  0  0  0  0  0  0  0  0  0
  -27.0610   -9.2463   -5.9179 N   0  0  0  0  0  0  0  0  0  0  0  0
  -27.7313   -9.1254   -6.6680 H   0  0  0  0  0  0  0  0  0  0  0  0
  -24.1817  -10.7942   -4.3127 C   0  0  0  0  0  0  0  0  0  0  0  0
  -23.6940  -10.7558   -3.1864 O   0  0  0  0  0  0  0  0  0  0  0  0
  -23.6725  -11.5949   -5.3120 N   0  0  0  0  0  0  0  0  0  0  0  0
  -24.1015  -11.5938   -6.2267 H   0  0  0  0  0  0  0  0  0  0  0  0
  -22.5196  -12.4414   -5.1025 C   0  0  0  0  0  0  0  0  0  0  0  0
  -21.2613  -11.8935   -5.7814 C   0  0  0  0  0  0  0  0  0  0  0  0
  -21.5192  -11.2497   -7.1407 C   0  0  0  0  0  0  0  0  0  0  0  0
  -21.1889   -9.7807   -7.1326 C   0  0  0  0  0  0  0  0  0  0  0  0
  -20.1994   -9.3088   -7.6727 O   0  0  0  0  0  0  0  0  0  0  0  0
  -22.1174   -9.0191   -6.5166 O   0  0  0  0  0  0  0  0  0  0  0  0
  -22.8602   -9.5221   -6.1322 H   0  0  0  0  0  0  0  0  0  0  0  0
  -28.5622   -3.8838   -4.4389 O   0  0  0  0  0  0  0  0  0  0  0  0
  -28.3128   -2.1847   -8.2541 C   0  0  0  0  0  0  0  0  0  0  0  0
  -28.8090   -3.4782   -8.0606 C   0  0  0  0  0  0  0  0  0  0  0  0
  -28.8787   -4.0215   -6.7721 C   0  0  0  0  0  0  0  0  0  0  0  0
  -28.4615   -3.2712   -5.6690 C   0  0  0  0  0  0  0  0  0  0  0  0
  -28.0306   -1.9567   -5.8536 C   0  0  0  0  0  0  0  0  0  0  0  0
  -27.9130   -1.4441   -7.1431 C   0  0  0  0  0  0  0  0  0  0  0  0
  -27.4562   -0.1936   -7.3073 F   0  0  0  0  0  0  0  0  0  0  0  0
  -27.1592   -0.9972  -11.4861 N   0  0  0  0  0  0  0  0  0  0  0  0
  -27.0375   -1.5877  -10.2431 C   0  0  0  0  0  0  0  0  0  0  0  0
  -26.0192   -2.0990   -9.7906 O   0  0  0  0  0  0  0  0  0  0  0  0
  -28.2374   -1.5818   -9.5377 N   0  0  0  0  0  0  0  0  0  0  0  0
  -27.9678   -0.4120  -11.6383 H   0  0  0  0  0  0  0  0  0  0  0  0
  -29.0601   -1.7067  -10.1151 H   0  0  0  0  0  0  0  0  0  0  0  0
  -22.5965    0.3138  -12.9571 C   0  0  0  0  0  0  0  0  0  0  0  0
  -23.9193   -0.3432  -13.2282 C   0  0  0  0  0  0  0  0  0  0  0  0
  -24.1586   -0.9361  -14.4707 C   0  0  0  0  0  0  0  0  0  0  0  0
  -25.3722   -1.5479  -14.7351 C   0  0  0  0  0  0  0  0  0  0  0  0
  -26.3658   -1.5709  -13.7577 C   0  0  0  0  0  0  0  0  0  0  0  0
  -26.1638   -0.9956  -12.4995 C   0  0  0  0  0  0  0  0  0  0  0  0
  -24.9308   -0.3752  -12.2416 C   0  0  0  0  0  0  0  0  0  0  0  0
 38 39  1  0  0  0
 39 40  1  0  0  0
 39 44  2  0  0  0
 40 41  2  0  0  0
 41 42  1  0  0  0
 42 43  2  0  0  0
 43 32  1  0  0  0
 43 44  1  0  0  0
 32 33  1  0  0  0
 32 36  1  0  0  0
 33 34  2  0  0  0
 33 35  1  0  0  0
 35 25  1  0  0  0
 35 37  1  0  0  0
 25 26  1  0  0  0
 25 30  2  0  0  0
 26 27  2  0  0  0
 27 28  1  0  0  0
 28 24  1  0  0  0
 28 29  2  0  0  0
 24  1  1  0  0  0
  1  2  1  0  0  0
  1  6  2  0  0  0
  2  3  2  0  0  0
  3  4  1  0  0  0
  4  5  2  0  0  0
  5  7  1  0  0  0
  5  6  1  0  0  0
  7  8  2  0  0  0
  7 11  1  0  0  0
  8  9  1  0  0  0
  9 13  1  0  0  0
  9 10  2  0  0  0
 13 14  2  0  0  0
 13 15  1  0  0  0
 15 17  1  0  0  0
 15 16  1  0  0  0
 17 18  1  0  0  0
 18 19  1  0  0  0
 19 20  1  0  0  0
 20 21  2  0  0  0
 20 22  1  0  0  0
 22 23  1  0  0  0
 10 11  1  0  0  0
 11 12  1  0  0  0
 29 30  1  0  0  0
 30 31  1  0  0  0
M  END
> <minimizedAffinity>
-10.59470

$$$$
