CHEMBL3893979


 36 40  0  0  0  0  0  0  0  0999 V2000
  -24.2606   -0.9251  -12.3033 C   0  0  0  0  0  0  0  0  0  0  0  0
  -24.3653    0.4487  -12.0608 C   0  0  0  0  0  0  0  0  0  0  0  0
  -23.6067    1.3773  -12.7746 C   0  0  0  0  0  0  0  0  0  0  0  0
  -22.6911    0.9560  -13.7384 C   0  0  0  0  0  0  0  0  0  0  0  0
  -22.5057   -0.4274  -13.9114 C   0  0  0  0  0  0  0  0  0  0  0  0
  -23.2811   -1.3607  -13.1979 C   0  0  0  0  0  0  0  0  0  0  0  0
  -22.0089    2.0074  -14.6086 C   0  0  0  0  0  0  0  0  0  0  0  0
  -21.1798    3.0145  -13.7943 C   0  0  0  0  0  0  0  0  0  0  0  0
  -19.9364    3.4896  -14.4616 N   0  0  0  0  0  0  0  0  0  0  0  0
  -19.2470    2.5384  -14.9976 C   0  0  0  0  0  0  0  0  0  0  0  0
  -17.8057    2.6264  -15.2462 C   0  0  0  0  0  0  0  0  0  0  0  0
  -17.1613    3.7096  -15.8250 C   0  0  0  0  0  0  0  0  0  0  0  0
  -15.7686    3.6739  -15.9131 C   0  0  0  0  0  0  0  0  0  0  0  0
  -15.0483    2.6193  -15.3307 C   0  0  0  0  0  0  0  0  0  0  0  0
  -15.7127    1.5223  -14.7757 C   0  0  0  0  0  0  0  0  0  0  0  0
  -17.0984    1.4952  -14.8319 C   0  0  0  0  0  0  0  0  0  0  0  0
  -17.8158    0.2960  -14.6561 N   0  0  0  0  0  0  0  0  0  0  0  0
  -19.0211    0.1674  -15.3373 C   0  0  0  0  0  0  0  0  0  0  0  0
  -19.3468   -0.8855  -15.8748 O   0  0  0  0  0  0  0  0  0  0  0  0
  -19.7909    1.3124  -15.3006 N   0  0  0  0  0  0  0  0  0  0  0  0
  -21.1738    1.3404  -15.7019 C   0  0  0  0  0  0  0  0  0  0  0  0
  -17.3297   -0.5607  -14.4373 H   0  0  0  0  0  0  0  0  0  0  0  0
  -26.6000   -2.6608  -10.1029 N   0  0  0  0  0  0  0  0  0  0  0  0
  -25.8964   -1.5771  -10.5710 C   0  0  0  0  0  0  0  0  0  0  0  0
  -25.9334   -0.4668  -10.0576 O   0  0  0  0  0  0  0  0  0  0  0  0
  -25.1298   -1.8726  -11.6944 N   0  0  0  0  0  0  0  0  0  0  0  0
  -26.2938   -3.5791  -10.3858 H   0  0  0  0  0  0  0  0  0  0  0  0
  -25.4508   -2.6379  -12.2691 H   0  0  0  0  0  0  0  0  0  0  0  0
  -28.9014   -3.7682   -7.3845 C   0  0  0  0  0  0  0  0  0  0  0  0
  -29.0161   -2.6038   -6.6216 C   0  0  0  0  0  0  0  0  0  0  0  0
  -28.3861   -1.4378   -7.0346 C   0  0  0  0  0  0  0  0  0  0  0  0
  -27.6233   -1.4364   -8.1960 C   0  0  0  0  0  0  0  0  0  0  0  0
  -27.4571   -2.6052   -8.9566 C   0  0  0  0  0  0  0  0  0  0  0  0
  -28.1442   -3.7604   -8.5586 C   0  0  0  0  0  0  0  0  0  0  0  0
  -28.5782   -5.8594   -5.6158 C   0  0  0  0  0  0  0  0  0  0  0  0
  -29.7378   -5.2647   -6.8805 S   0  0  0  0  0  0  0  0  0  0  0  0
 35 36  1  0  0  0
 36 29  1  0  0  0
 29 30  1  0  0  0
 29 34  2  0  0  0
 30 31  2  0  0  0
 31 32  1  0  0  0
 32 33  2  0  0  0
 33 23  1  0  0  0
 33 34  1  0  0  0
 23 24  1  0  0  0
 23 27  1  0  0  0
 24 25  2  0  0  0
 24 26  1  0  0  0
 26  1  1  0  0  0
 26 28  1  0  0  0
  1  2  1  0  0  0
  1  6  2  0  0  0
  2  3  2  0  0  0
  3  4  1  0  0  0
  4  7  1  0  0  0
  4  5  2  0  0  0
  7  8  1  0  0  0
  7 21  1  0  0  0
  8  9  1  0  0  0
  9 10  2  0  0  0
 10 11  1  0  0  0
 10 20  1  0  0  0
 11 12  1  0  0  0
 11 16  2  0  0  0
 12 13  2  0  0  0
 13 14  1  0  0  0
 14 15  2  0  0  0
 15 16  1  0  0  0
 16 17  1  0  0  0
 17 18  1  0  0  0
 17 22  1  0  0  0
 18 19  2  0  0  0
 18 20  1  0  0  0
 20 21  1  0  0  0
  5  6  1  0  0  0
M  END
> <minimizedAffinity>
-9.24097

$$$$
