CHEMBL3944739


 30 33  0  0  0  0  0  0  0  0999 V2000
  -29.5239   -4.7524   -5.7519 C   0  0  0  0  0  0  0  0  0  0  0  0
  -29.5725   -3.6480   -4.8673 C   0  0  0  0  0  0  0  0  0  0  0  0
  -29.1131   -2.3919   -5.2594 C   0  0  0  0  0  0  0  0  0  0  0  0
  -28.6007   -2.2050   -6.5410 C   0  0  0  0  0  0  0  0  0  0  0  0
  -28.1408   -0.9899   -6.9258 N   0  0  0  0  0  0  0  0  0  0  0  0
  -27.6269   -0.7918   -8.1648 C   0  0  0  0  0  0  0  0  0  0  0  0
  -27.5654   -1.8659   -9.0723 C   0  0  0  0  0  0  0  0  0  0  0  0
  -28.0391   -3.0831   -8.6875 N   0  0  0  0  0  0  0  0  0  0  0  0
  -28.5521   -3.2825   -7.4429 C   0  0  0  0  0  0  0  0  0  0  0  0
  -29.0202   -4.5392   -7.0563 C   0  0  0  0  0  0  0  0  0  0  0  0
  -26.9894   -1.6975  -10.4216 C   0  0  0  0  0  0  0  0  0  0  0  0
  -25.6512   -1.5699  -10.7419 C   0  0  0  0  0  0  0  0  0  0  0  0
  -25.5326   -1.4220  -12.0762 N   0  0  0  0  0  0  0  0  0  0  0  0
  -26.7494   -1.4519  -12.5998 N   0  0  0  0  0  0  0  0  0  0  0  0
  -27.6595   -1.6176  -11.6260 C   0  0  0  0  0  0  0  0  0  0  0  0
  -26.9541   -1.3556  -13.6183 H   0  0  0  0  0  0  0  0  0  0  0  0
  -30.0082   -6.0545   -5.3592 N   0  0  0  0  0  0  0  0  0  0  0  0
  -27.2155   -8.5809   -4.8051 C   0  0  0  0  0  0  0  0  0  0  0  0
  -27.5379   -9.5462   -5.7703 C   0  0  0  0  0  0  0  0  0  0  0  0
  -28.6270   -9.3637   -6.6052 C   0  0  0  0  0  0  0  0  0  0  0  0
  -29.4334   -8.2304   -6.4992 C   0  0  0  0  0  0  0  0  0  0  0  0
  -30.6827   -8.1084   -7.7429 Cl  0  0  0  0  0  0  0  0  0  0  0  0
  -29.1732   -7.2388   -5.4966 C   0  0  0  0  0  0  0  0  0  0  0  0
  -28.0326   -7.4402   -4.6709 C   0  0  0  0  0  0  0  0  0  0  0  0
  -24.9420   -9.3419   -4.3663 C   0  0  0  0  0  0  0  0  0  0  0  0
  -26.1227   -8.7157   -4.0040 O   0  0  0  0  0  0  0  0  0  0  0  0
  -31.3752   -6.1484   -4.8177 C   0  0  0  0  0  0  0  0  0  0  0  0
  -31.4352   -5.7891   -3.3164 C   0  0  0  0  0  0  0  0  0  0  0  0
  -30.8137   -6.7749   -2.5385 O   0  0  0  0  0  0  0  0  0  0  0  0
  -31.5296   -7.3883   -2.2272 H   0  0  0  0  0  0  0  0  0  0  0  0
 25 26  1  0  0  0
 26 18  1  0  0  0
 18 19  1  0  0  0
 18 24  2  0  0  0
 19 20  2  0  0  0
 20 21  1  0  0  0
 21 22  1  0  0  0
 21 23  2  0  0  0
 23 17  1  0  0  0
 23 24  1  0  0  0
 17 27  1  0  0  0
 17  1  1  0  0  0
 27 28  1  0  0  0
 28 29  1  0  0  0
 29 30  1  0  0  0
  1  2  1  0  0  0
  1 10  2  0  0  0
  2  3  2  0  0  0
  3  4  1  0  0  0
  4  5  1  0  0  0
  4  9  2  0  0  0
  5  6  2  0  0  0
  6  7  1  0  0  0
  7 11  1  0  0  0
  7  8  2  0  0  0
 11 12  1  0  0  0
 11 15  2  0  0  0
 12 13  2  0  0  0
 13 14  1  0  0  0
 14 15  1  0  0  0
 14 16  1  0  0  0
  8  9  1  0  0  0
  9 10  1  0  0  0
M  END
> <minimizedAffinity>
-8.18527

$$$$
