CHEMBL1807469


 41 45  0  0  0  0  0  0  0  0999 V2000
  -14.7393   -1.2540  -13.3119 C   0  0  0  0  0  0  0  0  0  0  0  0
  -15.2683   -0.3765  -14.2941 C   0  0  0  0  0  0  0  0  0  0  0  0
  -14.2973    0.5575  -14.5507 C   0  0  0  0  0  0  0  0  0  0  0  0
  -13.2331    0.1688  -13.7787 N   0  0  0  0  0  0  0  0  0  0  0  0
  -13.4764   -0.9114  -13.0139 N   0  0  0  0  0  0  0  0  0  0  0  0
  -12.3115    0.5857  -13.7192 H   0  0  0  0  0  0  0  0  0  0  0  0
  -16.2302   -4.6899  -12.9718 C   0  0  0  0  0  0  0  0  0  0  0  0
  -16.4933   -4.7512  -11.6070 C   0  0  0  0  0  0  0  0  0  0  0  0
  -16.2636   -3.6270  -10.8078 C   0  0  0  0  0  0  0  0  0  0  0  0
  -15.7404   -2.4564  -11.3683 C   0  0  0  0  0  0  0  0  0  0  0  0
  -15.4288   -2.4066  -12.7312 C   0  0  0  0  0  0  0  0  0  0  0  0
  -15.7062   -3.5271  -13.5307 C   0  0  0  0  0  0  0  0  0  0  0  0
  -16.3494   -5.8300  -13.7974 N   0  0  0  0  0  0  0  0  0  0  0  0
  -17.2448   -6.0781  -14.2128 H   0  0  0  0  0  0  0  0  0  0  0  0
  -15.0624   -6.8353  -14.1408 S   0  0  0  0  0  0  0  0  0  0  0  0
  -14.8731   -6.8776  -15.5782 O   0  0  0  0  0  0  0  0  0  0  0  0
  -15.2913   -8.0445  -13.3815 O   0  0  0  0  0  0  0  0  0  0  0  0
  -12.1458   -5.6139   -9.9649 C   0  0  0  0  0  0  0  0  0  0  0  0
  -12.3787   -5.4508  -11.4393 C   0  0  0  0  0  0  0  0  0  0  0  0
  -11.5851   -4.5945  -12.2119 C   0  0  0  0  0  0  0  0  0  0  0  0
  -11.8351   -4.4354  -13.5800 C   0  0  0  0  0  0  0  0  0  0  0  0
  -12.8823   -5.1341  -14.1886 C   0  0  0  0  0  0  0  0  0  0  0  0
  -13.6646   -6.0027  -13.4195 C   0  0  0  0  0  0  0  0  0  0  0  0
  -13.4247   -6.1505  -12.0501 C   0  0  0  0  0  0  0  0  0  0  0  0
  -14.3536    1.6527  -15.4093 N   0  0  0  0  0  0  0  0  0  0  0  0
  -13.6285    2.8735  -15.1562 C   0  0  0  0  0  0  0  0  0  0  0  0
  -12.9455    3.0188  -14.1550 O   0  0  0  0  0  0  0  0  0  0  0  0
  -14.9514    1.5943  -16.2222 H   0  0  0  0  0  0  0  0  0  0  0  0
  -13.7825    3.9753  -16.1280 C   0  0  0  0  0  0  0  0  0  0  0  0
  -12.7921    4.9583  -16.1514 C   0  0  0  0  0  0  0  0  0  0  0  0
  -12.8881    6.0274  -17.0428 C   0  0  0  0  0  0  0  0  0  0  0  0
  -13.9492    6.1428  -17.9513 C   0  0  0  0  0  0  0  0  0  0  0  0
  -14.9131    5.1203  -17.9301 C   0  0  0  0  0  0  0  0  0  0  0  0
  -14.8428    4.0454  -17.0298 C   0  0  0  0  0  0  0  0  0  0  0  0
  -13.9911    7.1849  -18.8495 N   0  0  0  0  0  0  0  0  0  0  0  0
  -12.8194    8.0166  -19.1655 C   0  0  0  0  0  0  0  0  0  0  0  0
  -13.2392    9.5054  -19.2249 C   0  0  0  0  0  0  0  0  0  0  0  0
  -14.3387    9.7447  -20.1845 N   0  0  0  0  0  0  0  0  0  0  0  0
  -14.7051   11.1581  -20.2090 C   0  0  0  0  0  0  0  0  0  0  0  0
  -15.4987    8.9068  -19.8080 C   0  0  0  0  0  0  0  0  0  0  0  0
  -15.1403    7.4036  -19.7513 C   0  0  0  0  0  0  0  0  0  0  0  0
 18 19  1  0  0  0
 19 20  1  0  0  0
 19 24  2  0  0  0
 20 21  2  0  0  0
 21 22  1  0  0  0
 22 23  2  0  0  0
 23 15  1  0  0  0
 23 24  1  0  0  0
 15 16  2  0  0  0
 15 17  2  0  0  0
 15 13  1  0  0  0
 13  7  1  0  0  0
 13 14  1  0  0  0
  7  8  1  0  0  0
  7 12  2  0  0  0
  8  9  2  0  0  0
  9 10  1  0  0  0
 10 11  2  0  0  0
 11  1  1  0  0  0
 11 12  1  0  0  0
  1  2  1  0  0  0
  1  5  2  0  0  0
  2  3  2  0  0  0
  3 25  1  0  0  0
  3  4  1  0  0  0
 25 26  1  0  0  0
 25 28  1  0  0  0
 26 27  2  0  0  0
 26 29  1  0  0  0
 29 30  1  0  0  0
 29 34  2  0  0  0
 30 31  2  0  0  0
 31 32  1  0  0  0
 32 35  1  0  0  0
 32 33  2  0  0  0
 35 36  1  0  0  0
 35 41  1  0  0  0
 36 37  1  0  0  0
 37 38  1  0  0  0
 38 39  1  0  0  0
 38 40  1  0  0  0
 40 41  1  0  0  0
 33 34  1  0  0  0
  4  5  1  0  0  0
  4  6  1  0  0  0
M  END
> <minimizedAffinity>
-8.18168

$$$$
