CHEMBL272688


 33 36  0  0  0  0  0  0  0  0999 V2000
  -17.6974    1.6327  -15.5198 C   0  0  0  0  0  0  0  0  0  0  0  0
  -17.8057    0.4730  -14.7605 C   0  0  0  0  0  0  0  0  0  0  0  0
  -16.6686   -0.1053  -14.1851 C   0  0  0  0  0  0  0  0  0  0  0  0
  -15.3937    0.4486  -14.3700 C   0  0  0  0  0  0  0  0  0  0  0  0
  -15.3119    1.6500  -15.1032 C   0  0  0  0  0  0  0  0  0  0  0  0
  -16.4550    2.2527  -15.6406 C   0  0  0  0  0  0  0  0  0  0  0  0
  -14.1408    2.3231  -15.3655 O   0  0  0  0  0  0  0  0  0  0  0  0
  -12.9831    1.5101  -15.1790 C   0  0  0  0  0  0  0  0  0  0  0  0
  -13.0423    0.7831  -13.8475 C   0  0  0  0  0  0  0  0  0  0  0  0
  -14.1831   -0.1419  -13.8310 N   0  0  0  0  0  0  0  0  0  0  0  0
  -14.1301   -1.4925  -13.4538 C   0  0  0  0  0  0  0  0  0  0  0  0
  -15.0765   -2.2621  -13.6005 O   0  0  0  0  0  0  0  0  0  0  0  0
  -12.9165   -1.9187  -12.9317 N   0  0  0  0  0  0  0  0  0  0  0  0
  -12.3065   -1.2193  -12.5442 H   0  0  0  0  0  0  0  0  0  0  0  0
  -12.5833   -3.2564  -12.5954 C   0  0  0  0  0  0  0  0  0  0  0  0
  -12.0186   -4.1650  -13.4943 C   0  0  0  0  0  0  0  0  0  0  0  0
  -11.8053   -5.4984  -13.1341 C   0  0  0  0  0  0  0  0  0  0  0  0
  -12.1248   -5.9448  -11.8521 C   0  0  0  0  0  0  0  0  0  0  0  0
  -11.9543   -7.3882  -11.4848 C   0  0  0  0  0  0  0  0  0  0  0  0
  -12.6281   -5.0257  -10.9254 C   0  0  0  0  0  0  0  0  0  0  0  0
  -12.8505   -3.6914  -11.2925 C   0  0  0  0  0  0  0  0  0  0  0  0
  -18.8705    2.1206  -16.0480 O   0  0  0  0  0  0  0  0  0  0  0  0
  -21.8378    1.1947  -14.0913 C   0  0  0  0  0  0  0  0  0  0  0  0
  -20.6785    1.0113  -14.8292 C   0  0  0  0  0  0  0  0  0  0  0  0
  -20.0101    2.1453  -15.2775 C   0  0  0  0  0  0  0  0  0  0  0  0
  -20.4608    3.4037  -14.8934 C   0  0  0  0  0  0  0  0  0  0  0  0
  -21.6120    3.4876  -14.1256 C   0  0  0  0  0  0  0  0  0  0  0  0
  -22.3291    2.4146  -13.7278 N   0  0  0  0  0  0  0  0  0  0  0  0
  -23.1425   -1.5584  -11.8512 C   0  0  0  0  0  0  0  0  0  0  0  0
  -22.4496   -0.4202  -12.3903 N   0  0  0  0  0  0  0  0  0  0  0  0
  -22.6424   -0.0049  -13.6898 C   0  0  0  0  0  0  0  0  0  0  0  0
  -23.4159   -0.5503  -14.4693 O   0  0  0  0  0  0  0  0  0  0  0  0
  -21.7913    0.1137  -11.8292 H   0  0  0  0  0  0  0  0  0  0  0  0
 29 30  1  0  0  0
 30 31  1  0  0  0
 30 33  1  0  0  0
 31 32  2  0  0  0
 31 23  1  0  0  0
 23 24  1  0  0  0
 23 28  2  0  0  0
 24 25  2  0  0  0
 25 22  1  0  0  0
 25 26  1  0  0  0
 22  1  1  0  0  0
  1  2  1  0  0  0
  1  6  2  0  0  0
  2  3  2  0  0  0
  3  4  1  0  0  0
  4  5  2  0  0  0
  4 10  1  0  0  0
  5  6  1  0  0  0
  5  7  1  0  0  0
  7  8  1  0  0  0
  8  9  1  0  0  0
  9 10  1  0  0  0
 10 11  1  0  0  0
 11 12  2  0  0  0
 11 13  1  0  0  0
 13 15  1  0  0  0
 13 14  1  0  0  0
 15 16  1  0  0  0
 15 21  2  0  0  0
 16 17  2  0  0  0
 17 18  1  0  0  0
 18 19  1  0  0  0
 18 20  2  0  0  0
 20 21  1  0  0  0
 26 27  2  0  0  0
 27 28  1  0  0  0
M  END
> <minimizedAffinity>
-8.31347

$$$$
