CHEMBL2016926


 32 36  0  0  0  0  0  0  0  0999 V2000
  -30.9652  -10.8722   -9.0994 O   0  0  0  0  0  0  0  0  0  0  0  0
  -30.0338  -10.1716   -8.7023 C   0  0  0  0  0  0  0  0  0  0  0  0
  -30.2435   -9.0460   -7.8826 N   0  0  0  0  0  0  0  0  0  0  0  0
  -31.6660   -8.7489   -7.5851 C   0  0  0  0  0  0  0  0  0  0  0  0
  -31.9482   -7.8091   -6.3951 C   0  0  0  0  0  0  0  0  0  0  0  0
  -30.8446   -6.8504   -6.2075 C   0  0  0  0  0  0  0  0  0  0  0  0
  -30.8469   -5.8036   -5.3330 N   0  0  0  0  0  0  0  0  0  0  0  0
  -29.6911   -5.1731   -5.5156 C   0  0  0  0  0  0  0  0  0  0  0  0
  -28.9383   -5.8372   -6.4678 N   0  0  0  0  0  0  0  0  0  0  0  0
  -29.6620   -6.9196   -6.8913 C   0  0  0  0  0  0  0  0  0  0  0  0
  -29.2829   -7.9231   -7.9022 C   0  0  0  0  0  0  0  0  0  0  0  0
  -28.0397   -5.5149   -6.8095 H   0  0  0  0  0  0  0  0  0  0  0  0
  -29.2383   -3.9292   -4.9668 C   0  0  0  0  0  0  0  0  0  0  0  0
  -30.0539   -2.8616   -5.0760 C   0  0  0  0  0  0  0  0  0  0  0  0
  -29.5039   -1.5109   -5.0021 C   0  0  0  0  0  0  0  0  0  0  0  0
  -30.2988   -0.4228   -5.3381 C   0  0  0  0  0  0  0  0  0  0  0  0
  -29.6859    0.6694   -5.9314 C   0  0  0  0  0  0  0  0  0  0  0  0
  -30.4317    1.5485   -6.6113 F   0  0  0  0  0  0  0  0  0  0  0  0
  -28.2971    0.8096   -5.9146 C   0  0  0  0  0  0  0  0  0  0  0  0
  -27.5139   -0.1568   -5.2847 C   0  0  0  0  0  0  0  0  0  0  0  0
  -28.1134   -1.3565   -4.9051 C   0  0  0  0  0  0  0  0  0  0  0  0
  -27.3348   -2.4570   -4.5230 N   0  0  0  0  0  0  0  0  0  0  0  0
  -27.8382   -3.7526   -4.4968 C   0  0  0  0  0  0  0  0  0  0  0  0
  -27.1316   -4.6935   -4.1541 O   0  0  0  0  0  0  0  0  0  0  0  0
  -26.3472   -2.3503   -4.3368 H   0  0  0  0  0  0  0  0  0  0  0  0
  -28.6030  -10.5299   -9.0839 C   0  0  0  0  0  0  0  0  0  0  0  0
  -28.2044  -10.1301  -10.4832 C   0  0  0  0  0  0  0  0  0  0  0  0
  -29.0388  -10.4074  -11.5716 C   0  0  0  0  0  0  0  0  0  0  0  0
  -28.6437   -9.9993  -12.8370 C   0  0  0  0  0  0  0  0  0  0  0  0
  -27.4970   -9.3358  -13.0882 N   0  0  0  0  0  0  0  0  0  0  0  0
  -26.7112   -9.0610  -12.0241 C   0  0  0  0  0  0  0  0  0  0  0  0
  -27.0172   -9.4310  -10.7228 C   0  0  0  0  0  0  0  0  0  0  0  0
  1  2  2  0  0  0
  2 26  1  0  0  0
  2  3  1  0  0  0
 26 27  1  0  0  0
 27 28  1  0  0  0
 27 32  2  0  0  0
 28 29  2  0  0  0
 29 30  1  0  0  0
 30 31  2  0  0  0
 31 32  1  0  0  0
  3  4  1  0  0  0
  3 11  1  0  0  0
  4  5  1  0  0  0
  5  6  1  0  0  0
  6  7  1  0  0  0
  6 10  2  0  0  0
  7  8  2  0  0  0
  8 13  1  0  0  0
  8  9  1  0  0  0
 13 14  2  0  0  0
 13 23  1  0  0  0
 14 15  1  0  0  0
 15 16  1  0  0  0
 15 21  2  0  0  0
 16 17  2  0  0  0
 17 18  1  0  0  0
 17 19  1  0  0  0
 19 20  2  0  0  0
 20 21  1  0  0  0
 21 22  1  0  0  0
 22 23  1  0  0  0
 22 25  1  0  0  0
 23 24  2  0  0  0
  9 10  1  0  0  0
  9 12  1  0  0  0
 10 11  1  0  0  0
M  END
> <minimizedAffinity>
-9.77077

$$$$
