CHEMBL4448354


 27 30  0  0  0  0  0  0  0  0999 V2000
  -27.4020   -1.7236   -9.7116 C   0  0  0  0  0  0  0  0  0  0  0  0
  -26.3292   -2.3944  -10.2523 C   0  0  0  0  0  0  0  0  0  0  0  0
  -26.2739   -1.9426  -11.5372 N   0  0  0  0  0  0  0  0  0  0  0  0
  -27.2448   -1.0413  -11.7802 N   0  0  0  0  0  0  0  0  0  0  0  0
  -27.9496   -0.9052  -10.6621 N   0  0  0  0  0  0  0  0  0  0  0  0
  -28.5381    0.1281   -5.3218 N   0  0  0  0  0  0  0  0  0  0  0  0
  -28.4244   -0.9851   -6.1652 C   0  0  0  0  0  0  0  0  0  0  0  0
  -29.0728   -2.1779   -5.8338 C   0  0  0  0  0  0  0  0  0  0  0  0
  -29.0975   -3.2484   -6.7273 C   0  0  0  0  0  0  0  0  0  0  0  0
  -28.5188   -3.1149   -7.9878 C   0  0  0  0  0  0  0  0  0  0  0  0
  -27.9224   -1.9055   -8.3684 C   0  0  0  0  0  0  0  0  0  0  0  0
  -27.8835   -0.8463   -7.4493 C   0  0  0  0  0  0  0  0  0  0  0  0
  -28.6466   -0.1087   -4.3407 H   0  0  0  0  0  0  0  0  0  0  0  0
  -27.8189    0.8301   -5.4720 H   0  0  0  0  0  0  0  0  0  0  0  0
  -25.4007   -2.4056  -12.6008 C   0  0  0  0  0  0  0  0  0  0  0  0
  -24.4154   -1.3390  -13.0012 C   0  0  0  0  0  0  0  0  0  0  0  0
  -24.4128   -0.8073  -14.2947 C   0  0  0  0  0  0  0  0  0  0  0  0
  -23.4290    0.1088  -14.6854 C   0  0  0  0  0  0  0  0  0  0  0  0
  -22.4239    0.5328  -13.7968 C   0  0  0  0  0  0  0  0  0  0  0  0
  -22.4734    0.0251  -12.4864 C   0  0  0  0  0  0  0  0  0  0  0  0
  -23.4442   -0.9021  -12.0957 C   0  0  0  0  0  0  0  0  0  0  0  0
  -21.3501    1.4498  -14.2223 C   0  0  0  0  0  0  0  0  0  0  0  0
  -20.1291    1.0278  -14.7277 C   0  0  0  0  0  0  0  0  0  0  0  0
  -19.1269    1.8458  -15.1222 N   0  0  0  0  0  0  0  0  0  0  0  0
  -19.3688    3.1588  -15.0031 C   0  0  0  0  0  0  0  0  0  0  0  0
  -20.4928    3.7052  -14.5269 N   0  0  0  0  0  0  0  0  0  0  0  0
  -21.4514    2.8321  -14.1432 C   0  0  0  0  0  0  0  0  0  0  0  0
  6  7  1  0  0  0
  6 13  1  0  0  0
  6 14  1  0  0  0
  7  8  1  0  0  0
  7 12  2  0  0  0
  8  9  2  0  0  0
  9 10  1  0  0  0
 10 11  2  0  0  0
 11  1  1  0  0  0
 11 12  1  0  0  0
  1  2  2  0  0  0
  1  5  1  0  0  0
  2  3  1  0  0  0
  3 15  1  0  0  0
  3  4  1  0  0  0
 15 16  1  0  0  0
 16 17  1  0  0  0
 16 21  2  0  0  0
 17 18  2  0  0  0
 18 19  1  0  0  0
 19 22  1  0  0  0
 19 20  2  0  0  0
 22 23  1  0  0  0
 22 27  2  0  0  0
 23 24  2  0  0  0
 24 25  1  0  0  0
 25 26  2  0  0  0
 26 27  1  0  0  0
 20 21  1  0  0  0
  4  5  2  0  0  0
M  END
> <minimizedAffinity>
-9.28752

$$$$
