CHEMBL374736


 44 50  0  0  0  0  0  0  0  0999 V2000
  -27.5030   -3.7761   -9.3091 N   0  0  0  0  0  0  0  0  0  0  0  0
  -26.7008   -2.9110  -10.0904 C   0  0  0  0  0  0  0  0  0  0  0  0
  -25.6719   -3.1725  -11.0081 C   0  0  0  0  0  0  0  0  0  0  0  0
  -25.0136   -2.0827  -11.6102 C   0  0  0  0  0  0  0  0  0  0  0  0
  -25.3654   -0.7666  -11.3608 C   0  0  0  0  0  0  0  0  0  0  0  0
  -26.3704   -0.5136  -10.4138 C   0  0  0  0  0  0  0  0  0  0  0  0
  -27.0035   -1.5871   -9.7453 C   0  0  0  0  0  0  0  0  0  0  0  0
  -27.8420   -1.7609   -8.6627 C   0  0  0  0  0  0  0  0  0  0  0  0
  -28.0530   -0.7525   -7.7090 C   0  0  0  0  0  0  0  0  0  0  0  0
  -28.4986   -1.1940   -6.4480 C   0  0  0  0  0  0  0  0  0  0  0  0
  -28.8074   -2.5277   -6.1545 C   0  0  0  0  0  0  0  0  0  0  0  0
  -29.1236   -3.3076   -7.3126 C   0  0  0  0  0  0  0  0  0  0  0  0
  -28.2895   -3.0336   -8.4232 C   0  0  0  0  0  0  0  0  0  0  0  0
  -30.6667   -3.6381   -7.4094 C   0  0  0  0  0  0  0  0  0  0  0  0
  -31.5645   -2.8326   -6.3733 C   0  0  0  0  0  0  0  0  0  0  0  0
  -30.9330   -3.0097   -5.0372 C   0  0  0  0  0  0  0  0  0  0  0  0
  -31.4453   -3.6233   -3.9708 N   0  0  0  0  0  0  0  0  0  0  0  0
  -30.3373   -3.9329   -3.2501 N   0  0  0  0  0  0  0  0  0  0  0  0
  -30.4547   -4.7844   -2.0908 C   0  0  0  0  0  0  0  0  0  0  0  0
  -29.1621   -3.5920   -3.8757 C   0  0  0  0  0  0  0  0  0  0  0  0
  -29.5425   -2.8409   -4.9584 C   0  0  0  0  0  0  0  0  0  0  0  0
  -28.6995   -0.0226   -5.6286 C   0  0  0  0  0  0  0  0  0  0  0  0
  -29.1528    0.1571   -4.5068 O   0  0  0  0  0  0  0  0  0  0  0  0
  -28.3123    1.0367   -6.4428 N   0  0  0  0  0  0  0  0  0  0  0  0
  -27.8358    0.6872   -7.7598 C   0  0  0  0  0  0  0  0  0  0  0  0
  -28.4560    1.9813   -6.1191 H   0  0  0  0  0  0  0  0  0  0  0  0
  -24.7659    0.3740  -11.9705 N   0  0  0  0  0  0  0  0  0  0  0  0
  -23.5965    0.3753  -12.7027 C   0  0  0  0  0  0  0  0  0  0  0  0
  -22.9242   -0.6314  -12.8937 O   0  0  0  0  0  0  0  0  0  0  0  0
  -23.2425    1.6392  -13.1723 N   0  0  0  0  0  0  0  0  0  0  0  0
  -25.2545    1.2495  -11.8918 H   0  0  0  0  0  0  0  0  0  0  0  0
  -23.6334    2.4365  -12.6939 H   0  0  0  0  0  0  0  0  0  0  0  0
  -22.0754    1.8757  -13.9539 C   0  0  0  0  0  0  0  0  0  0  0  0
  -21.3624    0.8392  -14.5576 C   0  0  0  0  0  0  0  0  0  0  0  0
  -20.1187    1.0658  -15.1465 C   0  0  0  0  0  0  0  0  0  0  0  0
  -19.5838    2.3469  -15.2005 C   0  0  0  0  0  0  0  0  0  0  0  0
  -20.3356    3.4124  -14.7064 C   0  0  0  0  0  0  0  0  0  0  0  0
  -21.5834    3.1789  -14.0909 C   0  0  0  0  0  0  0  0  0  0  0  0
  -18.3041    2.3960  -15.6710 O   0  0  0  0  0  0  0  0  0  0  0  0
  -17.4437    1.3171  -15.3439 C   0  0  0  0  0  0  0  0  0  0  0  0
  -27.2917   -5.2274   -9.2663 C   0  0  0  0  0  0  0  0  0  0  0  0
  -28.0313   -5.8840   -8.0906 C   0  0  0  0  0  0  0  0  0  0  0  0
  -29.9061   -7.5289   -7.7271 C   0  0  0  0  0  0  0  0  0  0  0  0
  -28.5533   -7.2936   -8.3939 C   0  0  0  0  0  0  0  0  0  0  0  0
 43 44  1  0  0  0
 44 42  1  0  0  0
 42 41  1  0  0  0
 41  1  1  0  0  0
  1  2  1  0  0  0
  1 13  1  0  0  0
  2  3  1  0  0  0
  2  7  2  0  0  0
  3  4  2  0  0  0
  4  5  1  0  0  0
  5 27  1  0  0  0
  5  6  2  0  0  0
 27 28  1  0  0  0
 27 31  1  0  0  0
 28 29  2  0  0  0
 28 30  1  0  0  0
 30 33  1  0  0  0
 30 32  1  0  0  0
 33 34  1  0  0  0
 33 38  2  0  0  0
 34 35  2  0  0  0
 35 36  1  0  0  0
 36 39  1  0  0  0
 36 37  2  0  0  0
 39 40  1  0  0  0
 37 38  1  0  0  0
  6  7  1  0  0  0
  7  8  1  0  0  0
  8  9  1  0  0  0
  8 13  2  0  0  0
  9 10  2  0  0  0
  9 25  1  0  0  0
 10 11  1  0  0  0
 10 22  1  0  0  0
 11 12  2  0  0  0
 11 21  1  0  0  0
 12 13  1  0  0  0
 12 14  1  0  0  0
 14 15  1  0  0  0
 15 16  1  0  0  0
 16 17  2  0  0  0
 16 21  1  0  0  0
 17 18  1  0  0  0
 18 19  1  0  0  0
 18 20  1  0  0  0
 20 21  2  0  0  0
 22 23  2  0  0  0
 22 24  1  0  0  0
 24 25  1  0  0  0
 24 26  1  0  0  0
M  END
> <minimizedAffinity>
-0.43488

$$$$
