CHEMBL3922278


 34 38  0  0  0  0  0  0  0  0999 V2000
  -28.1433   -3.3191   -7.8051 C   0  0  0  0  0  0  0  0  0  0  0  0
  -28.1871   -3.0082   -6.4461 C   0  0  0  0  0  0  0  0  0  0  0  0
  -28.1226   -1.6665   -5.9911 C   0  0  0  0  0  0  0  0  0  0  0  0
  -28.1965   -1.2772   -4.6452 C   0  0  0  0  0  0  0  0  0  0  0  0
  -28.2018    0.0132   -4.2671 N   0  0  0  0  0  0  0  0  0  0  0  0
  -28.1029    0.9182   -5.2446 C   0  0  0  0  0  0  0  0  0  0  0  0
  -28.0166    0.6592   -6.5535 N   0  0  0  0  0  0  0  0  0  0  0  0
  -28.0326   -0.6271   -6.9113 C   0  0  0  0  0  0  0  0  0  0  0  0
  -27.9644   -0.9494   -8.2596 C   0  0  0  0  0  0  0  0  0  0  0  0
  -27.9733   -2.2742   -8.7268 C   0  0  0  0  0  0  0  0  0  0  0  0
  -28.6592   -5.6208   -7.3857 C   0  0  0  0  0  0  0  0  0  0  0  0
  -28.2667   -4.5948   -8.2979 O   0  0  0  0  0  0  0  0  0  0  0  0
  -28.2584   -2.2749   -3.6533 N   0  0  0  0  0  0  0  0  0  0  0  0
  -27.8624   -1.9624   -2.7697 H   0  0  0  0  0  0  0  0  0  0  0  0
  -29.1831   -3.3280   -3.5256 C   0  0  0  0  0  0  0  0  0  0  0  0
  -30.5570   -3.0869   -3.3860 C   0  0  0  0  0  0  0  0  0  0  0  0
  -31.4731   -4.1373   -3.4515 C   0  0  0  0  0  0  0  0  0  0  0  0
  -31.0184   -5.4384   -3.6434 C   0  0  0  0  0  0  0  0  0  0  0  0
  -31.9232   -6.4221   -3.7520 F   0  0  0  0  0  0  0  0  0  0  0  0
  -29.6578   -5.7110   -3.7430 C   0  0  0  0  0  0  0  0  0  0  0  0
  -29.1026   -7.3259   -3.9596 Cl  0  0  0  0  0  0  0  0  0  0  0  0
  -28.7523   -4.6542   -3.6910 C   0  0  0  0  0  0  0  0  0  0  0  0
  -27.4339   -4.8849   -3.8233 F   0  0  0  0  0  0  0  0  0  0  0  0
  -27.8106   -2.5985  -10.0611 O   0  0  0  0  0  0  0  0  0  0  0  0
  -27.2558   -1.5473  -10.8631 C   0  0  0  0  0  0  0  0  0  0  0  0
  -26.0728   -1.9870  -11.7388 C   0  0  0  0  0  0  0  0  0  0  0  0
  -24.7879   -1.2233  -11.2900 C   0  0  0  0  0  0  0  0  0  0  0  0
  -23.8058   -1.1023  -12.3662 N   0  0  0  0  0  0  0  0  0  0  0  0
  -22.7097   -0.1754  -12.1130 C   0  0  0  0  0  0  0  0  0  0  0  0
  -22.1266   -0.0239  -13.5146 C   0  0  0  0  0  0  0  0  0  0  0  0
  -23.3127   -0.2009  -14.4712 C   0  0  0  0  0  0  0  0  0  0  0  0
  -24.4712   -0.5654  -13.5640 C   0  0  0  0  0  0  0  0  0  0  0  0
  -25.4467   -1.6271  -14.0496 C   0  0  0  0  0  0  0  0  0  0  0  0
  -26.5160   -1.7192  -13.0972 O   0  0  0  0  0  0  0  0  0  0  0  0
 11 12  1  0  0  0
 12  1  1  0  0  0
  1  2  1  0  0  0
  1 10  2  0  0  0
  2  3  2  0  0  0
  3  4  1  0  0  0
  3  8  1  0  0  0
  4 13  1  0  0  0
  4  5  2  0  0  0
 13 15  1  0  0  0
 13 14  1  0  0  0
 15 16  1  0  0  0
 15 22  2  0  0  0
 16 17  2  0  0  0
 17 18  1  0  0  0
 18 19  1  0  0  0
 18 20  2  0  0  0
 20 21  1  0  0  0
 20 22  1  0  0  0
 22 23  1  0  0  0
  5  6  1  0  0  0
  6  7  2  0  0  0
  7  8  1  0  0  0
  8  9  2  0  0  0
  9 10  1  0  0  0
 10 24  1  0  0  0
 24 25  1  0  0  0
 26 27  1  0  0  0
 26 34  1  0  0  0
 26 25  1  0  0  0
 27 28  1  0  0  0
 28 29  1  0  0  0
 28 32  1  0  0  0
 29 30  1  0  0  0
 30 31  1  0  0  0
 31 32  1  0  0  0
 32 33  1  0  0  0
 33 34  1  0  0  0
M  END
> <minimizedAffinity>
-9.62335

$$$$
