CHEMBL3690388


 42 45  0  0  0  0  0  0  0  0999 V2000
  -14.3095   -0.4489  -14.0598 C   0  0  0  0  0  0  0  0  0  0  0  0
  -15.6279   -0.6813  -13.4565 C   0  0  0  0  0  0  0  0  0  0  0  0
  -16.7002   -0.0004  -13.8884 C   0  0  0  0  0  0  0  0  0  0  0  0
  -16.5577    0.9789  -14.8765 N   0  0  0  0  0  0  0  0  0  0  0  0
  -17.4816    1.8629  -15.4445 C   0  0  0  0  0  0  0  0  0  0  0  0
  -16.7318    2.5518  -16.3871 C   0  0  0  0  0  0  0  0  0  0  0  0
  -15.4196    2.1627  -16.4029 N   0  0  0  0  0  0  0  0  0  0  0  0
  -15.3238    1.2359  -15.4762 C   0  0  0  0  0  0  0  0  0  0  0  0
  -14.1924    0.4866  -15.0313 C   0  0  0  0  0  0  0  0  0  0  0  0
  -18.8919    2.0587  -15.0560 C   0  0  0  0  0  0  0  0  0  0  0  0
  -19.4340    3.3476  -14.9942 C   0  0  0  0  0  0  0  0  0  0  0  0
  -20.7558    3.5574  -14.6277 C   0  0  0  0  0  0  0  0  0  0  0  0
  -21.5897    2.4723  -14.3983 C   0  0  0  0  0  0  0  0  0  0  0  0
  -21.1265    1.1610  -14.5355 C   0  0  0  0  0  0  0  0  0  0  0  0
  -19.7606    0.9638  -14.8254 C   0  0  0  0  0  0  0  0  0  0  0  0
  -21.9935    0.0378  -14.4166 N   0  0  0  0  0  0  0  0  0  0  0  0
  -22.6685   -0.3412  -13.2758 C   0  0  0  0  0  0  0  0  0  0  0  0
  -22.6387    0.2189  -12.1827 O   0  0  0  0  0  0  0  0  0  0  0  0
  -23.3976   -1.4975  -13.4212 N   0  0  0  0  0  0  0  0  0  0  0  0
  -22.1692   -0.4924  -15.2571 H   0  0  0  0  0  0  0  0  0  0  0  0
  -23.7620   -1.7132  -14.3380 H   0  0  0  0  0  0  0  0  0  0  0  0
  -24.1520   -1.9855  -12.2526 C   0  0  0  0  0  0  0  0  0  0  0  0
  -25.6504   -1.6439  -12.2055 C   0  0  0  0  0  0  0  0  0  0  0  0
  -26.3009   -2.3143  -11.2282 F   0  0  0  0  0  0  0  0  0  0  0  0
  -25.8106   -0.3206  -11.9443 F   0  0  0  0  0  0  0  0  0  0  0  0
  -26.2744   -1.8933  -13.3764 F   0  0  0  0  0  0  0  0  0  0  0  0
  -13.3056   -2.3254  -12.8918 C   0  0  0  0  0  0  0  0  0  0  0  0
  -13.1281   -1.2312  -13.6520 C   0  0  0  0  0  0  0  0  0  0  0  0
  -11.8888   -0.7696  -14.0451 N   0  0  0  0  0  0  0  0  0  0  0  0
  -11.1206   -1.0950  -13.4592 H   0  0  0  0  0  0  0  0  0  0  0  0
  -11.8544    0.2400  -14.1613 H   0  0  0  0  0  0  0  0  0  0  0  0
  -12.2370   -3.2566  -12.4021 C   0  0  0  0  0  0  0  0  0  0  0  0
  -11.3588   -3.8700  -10.1627 N   0  0  0  0  0  0  0  0  0  0  0  0
  -12.3770   -3.8299  -10.9690 C   0  0  0  0  0  0  0  0  0  0  0  0
  -10.5237   -3.4705  -10.5988 H   0  0  0  0  0  0  0  0  0  0  0  0
  -13.6092   -4.3010  -10.5483 N   0  0  0  0  0  0  0  0  0  0  0  0
  -14.1496   -5.5788  -11.0488 C   0  0  0  0  0  0  0  0  0  0  0  0
  -15.4554   -5.3390  -11.8347 C   0  0  0  0  0  0  0  0  0  0  0  0
  -16.4768   -4.6039  -11.0546 N   0  0  0  0  0  0  0  0  0  0  0  0
  -15.8860   -3.3315  -10.5919 C   0  0  0  0  0  0  0  0  0  0  0  0
  -14.5850   -3.5179   -9.7793 C   0  0  0  0  0  0  0  0  0  0  0  0
  -16.7081   -5.1651  -10.2342 H   0  0  0  0  0  0  0  0  0  0  0  0
 33 34  2  0  0  0
 33 35  1  0  0  0
 34 32  1  0  0  0
 34 36  1  0  0  0
 32 27  1  0  0  0
 27 28  2  0  0  0
 28 29  1  0  0  0
 28  1  1  0  0  0
 29 30  1  0  0  0
 29 31  1  0  0  0
  1  2  1  0  0  0
  1  9  2  0  0  0
  2  3  2  0  0  0
  3  4  1  0  0  0
  4  5  1  0  0  0
  4  8  1  0  0  0
  5 10  1  0  0  0
  5  6  2  0  0  0
 10 11  1  0  0  0
 10 15  2  0  0  0
 11 12  2  0  0  0
 12 13  1  0  0  0
 13 14  2  0  0  0
 14 16  1  0  0  0
 14 15  1  0  0  0
 16 17  1  0  0  0
 16 20  1  0  0  0
 17 18  2  0  0  0
 17 19  1  0  0  0
 19 22  1  0  0  0
 19 21  1  0  0  0
 22 23  1  0  0  0
 23 24  1  0  0  0
 23 25  1  0  0  0
 23 26  1  0  0  0
  6  7  1  0  0  0
  7  8  2  0  0  0
  8  9  1  0  0  0
 36 37  1  0  0  0
 36 41  1  0  0  0
 37 38  1  0  0  0
 38 39  1  0  0  0
 39 40  1  0  0  0
 39 42  1  0  0  0
 40 41  1  0  0  0
M  END
> <minimizedAffinity>
-9.71063

$$$$
