CHEMBL377734


 31 34  0  0  0  0  0  0  0  0999 V2000
  -18.7267    3.3013  -14.3913 N   0  0  0  0  0  0  0  0  0  0  0  0
  -18.8426    3.3200  -13.3802 H   0  0  0  0  0  0  0  0  0  0  0  0
  -16.1204    0.6493  -14.2815 C   0  0  0  0  0  0  0  0  0  0  0  0
  -17.2463    1.4490  -13.9809 C   0  0  0  0  0  0  0  0  0  0  0  0
  -17.6621    2.5000  -14.8207 C   0  0  0  0  0  0  0  0  0  0  0  0
  -16.8782    2.7440  -15.9628 C   0  0  0  0  0  0  0  0  0  0  0  0
  -17.1921    3.7358  -16.8119 F   0  0  0  0  0  0  0  0  0  0  0  0
  -15.7676    1.9683  -16.2788 C   0  0  0  0  0  0  0  0  0  0  0  0
  -15.3936    0.9305  -15.4358 C   0  0  0  0  0  0  0  0  0  0  0  0
  -14.3129    0.2088  -15.7676 F   0  0  0  0  0  0  0  0  0  0  0  0
  -15.5449   -0.2013  -12.1721 O   0  0  0  0  0  0  0  0  0  0  0  0
  -15.7659   -0.4623  -13.3485 C   0  0  0  0  0  0  0  0  0  0  0  0
  -15.7278   -1.7491  -13.8571 N   0  0  0  0  0  0  0  0  0  0  0  0
  -15.9584   -1.9166  -14.8306 H   0  0  0  0  0  0  0  0  0  0  0  0
  -15.4738   -2.8730  -13.0096 C   0  0  0  0  0  0  0  0  0  0  0  0
  -15.0731   -4.1957  -13.5970 C   0  0  0  0  0  0  0  0  0  0  0  0
  -16.4139   -4.0481  -12.9431 C   0  0  0  0  0  0  0  0  0  0  0  0
  -19.9895    3.3124  -15.1281 C   0  0  0  0  0  0  0  0  0  0  0  0
  -20.9934    2.3262  -14.6254 C   0  0  0  0  0  0  0  0  0  0  0  0
  -22.1978    2.5906  -14.0164 C   0  0  0  0  0  0  0  0  0  0  0  0
  -22.9527    1.4884  -13.7090 N   0  0  0  0  0  0  0  0  0  0  0  0
  -22.3330    0.3727  -14.0199 C   0  0  0  0  0  0  0  0  0  0  0  0
  -20.7982    0.6286  -14.7875 S   0  0  0  0  0  0  0  0  0  0  0  0
  -22.7869   -0.8789  -13.7817 N   0  0  0  0  0  0  0  0  0  0  0  0
  -22.1367   -1.5987  -13.4993 H   0  0  0  0  0  0  0  0  0  0  0  0
  -24.0624   -1.1869  -13.2841 C   0  0  0  0  0  0  0  0  0  0  0  0
  -25.1526   -1.4805  -14.1013 C   0  0  0  0  0  0  0  0  0  0  0  0
  -26.4161   -1.6519  -13.5495 C   0  0  0  0  0  0  0  0  0  0  0  0
  -26.5656   -1.5733  -12.1756 C   0  0  0  0  0  0  0  0  0  0  0  0
  -25.4306   -1.3401  -11.4209 C   0  0  0  0  0  0  0  0  0  0  0  0
  -24.1926   -1.1505  -11.9396 N   0  0  0  0  0  0  0  0  0  0  0  0
 11 12  2  0  0  0
 12 13  1  0  0  0
 12  3  1  0  0  0
 13 15  1  0  0  0
 13 14  1  0  0  0
 15 16  1  0  0  0
 15 17  1  0  0  0
 16 17  1  0  0  0
  3  4  1  0  0  0
  3  9  2  0  0  0
  4  5  2  0  0  0
  5  1  1  0  0  0
  5  6  1  0  0  0
  1 18  1  0  0  0
  1  2  1  0  0  0
 18 19  1  0  0  0
 19 20  2  0  0  0
 19 23  1  0  0  0
 20 21  1  0  0  0
 21 22  2  0  0  0
 22 24  1  0  0  0
 22 23  1  0  0  0
 24 26  1  0  0  0
 24 25  1  0  0  0
 26 27  1  0  0  0
 26 31  2  0  0  0
 27 28  2  0  0  0
 28 29  1  0  0  0
 29 30  2  0  0  0
 30 31  1  0  0  0
  6  7  1  0  0  0
  6  8  2  0  0  0
  8  9  1  0  0  0
  9 10  1  0  0  0
M  END
> <minimizedAffinity>
-8.99650

$$$$
