CHEMBL3690518


 34 38  0  0  0  0  0  0  0  0999 V2000
  -29.4202   -7.1892   -6.1025 C   0  0  0  0  0  0  0  0  0  0  0  0
  -28.3020   -7.0061   -5.1441 C   0  0  0  0  0  0  0  0  0  0  0  0
  -28.0281   -5.7730   -4.6574 C   0  0  0  0  0  0  0  0  0  0  0  0
  -28.9497   -4.7402   -4.9062 N   0  0  0  0  0  0  0  0  0  0  0  0
  -29.1243   -3.4489   -4.3745 C   0  0  0  0  0  0  0  0  0  0  0  0
  -30.2707   -3.7792   -3.6394 C   0  0  0  0  0  0  0  0  0  0  0  0
  -31.0744   -4.6009   -4.4076 N   0  0  0  0  0  0  0  0  0  0  0  0
  -30.2346   -5.0856   -5.3164 C   0  0  0  0  0  0  0  0  0  0  0  0
  -30.3381   -6.1917   -6.1955 C   0  0  0  0  0  0  0  0  0  0  0  0
  -32.2835  -10.0607   -8.5924 N   0  0  0  0  0  0  0  0  0  0  0  0
  -30.9849   -9.7559   -8.1748 C   0  0  0  0  0  0  0  0  0  0  0  0
  -30.8436   -8.6692   -7.3942 N   0  0  0  0  0  0  0  0  0  0  0  0
  -29.5992   -8.3987   -6.9477 C   0  0  0  0  0  0  0  0  0  0  0  0
  -28.5046   -9.1403   -7.2291 N   0  0  0  0  0  0  0  0  0  0  0  0
  -28.6973  -10.2277   -8.0002 C   0  0  0  0  0  0  0  0  0  0  0  0
  -29.9239  -10.5846   -8.4949 C   0  0  0  0  0  0  0  0  0  0  0  0
  -30.0728  -11.6701   -9.2654 F   0  0  0  0  0  0  0  0  0  0  0  0
  -32.8989   -9.2888   -8.3557 H   0  0  0  0  0  0  0  0  0  0  0  0
  -32.3246  -10.3261   -9.5709 H   0  0  0  0  0  0  0  0  0  0  0  0
  -29.1196   -2.1929   -5.2130 C   0  0  0  0  0  0  0  0  0  0  0  0
  -29.6385   -0.9895   -4.7198 C   0  0  0  0  0  0  0  0  0  0  0  0
  -29.3630    0.2181   -5.3669 C   0  0  0  0  0  0  0  0  0  0  0  0
  -28.5675    0.2439   -6.5138 C   0  0  0  0  0  0  0  0  0  0  0  0
  -28.0463   -0.9336   -7.0500 C   0  0  0  0  0  0  0  0  0  0  0  0
  -28.3652   -2.1488   -6.4175 C   0  0  0  0  0  0  0  0  0  0  0  0
  -27.1797   -0.9484   -8.1804 N   0  0  0  0  0  0  0  0  0  0  0  0
  -27.3828   -1.6931   -9.3268 C   0  0  0  0  0  0  0  0  0  0  0  0
  -28.3665   -2.3903   -9.5555 O   0  0  0  0  0  0  0  0  0  0  0  0
  -26.3576   -1.5873  -10.2522 N   0  0  0  0  0  0  0  0  0  0  0  0
  -26.4920   -0.2146   -8.2349 H   0  0  0  0  0  0  0  0  0  0  0  0
  -25.5853   -0.9660  -10.0756 H   0  0  0  0  0  0  0  0  0  0  0  0
  -26.4566   -2.2443  -11.5242 C   0  0  0  0  0  0  0  0  0  0  0  0
  -25.7713   -1.6659  -12.7338 C   0  0  0  0  0  0  0  0  0  0  0  0
  -27.2689   -1.6988  -12.6642 C   0  0  0  0  0  0  0  0  0  0  0  0
 10 11  1  0  0  0
 10 18  1  0  0  0
 10 19  1  0  0  0
 11 12  1  0  0  0
 11 16  2  0  0  0
 12 13  2  0  0  0
 13  1  1  0  0  0
 13 14  1  0  0  0
  1  2  1  0  0  0
  1  9  2  0  0  0
  2  3  2  0  0  0
  3  4  1  0  0  0
  4  5  1  0  0  0
  4  8  1  0  0  0
  5 20  1  0  0  0
  5  6  2  0  0  0
 20 21  1  0  0  0
 20 25  2  0  0  0
 21 22  2  0  0  0
 22 23  1  0  0  0
 23 24  2  0  0  0
 24 26  1  0  0  0
 24 25  1  0  0  0
 26 27  1  0  0  0
 26 30  1  0  0  0
 27 28  2  0  0  0
 27 29  1  0  0  0
 29 32  1  0  0  0
 29 31  1  0  0  0
 32 33  1  0  0  0
 32 34  1  0  0  0
 33 34  1  0  0  0
  6  7  1  0  0  0
  7  8  2  0  0  0
  8  9  1  0  0  0
 14 15  2  0  0  0
 15 16  1  0  0  0
 16 17  1  0  0  0
M  END
> <minimizedAffinity>
-9.77731

$$$$
