CHEMBL462835


 42 47  0  0  0  0  0  0  0  0999 V2000
  -22.0095    0.9675  -13.9693 C   0  0  0  0  0  0  0  0  0  0  0  0
  -21.7985    2.3437  -13.9588 C   0  0  0  0  0  0  0  0  0  0  0  0
  -20.6342    2.8772  -14.5245 C   0  0  0  0  0  0  0  0  0  0  0  0
  -19.6596    2.0467  -15.0957 C   0  0  0  0  0  0  0  0  0  0  0  0
  -19.9365    0.6787  -15.2007 C   0  0  0  0  0  0  0  0  0  0  0  0
  -21.1055    0.1477  -14.6381 C   0  0  0  0  0  0  0  0  0  0  0  0
  -21.2889   -1.1805  -14.6563 F   0  0  0  0  0  0  0  0  0  0  0  0
  -18.3719    2.5092  -15.4753 N   0  0  0  0  0  0  0  0  0  0  0  0
  -17.2283    1.7462  -15.5793 C   0  0  0  0  0  0  0  0  0  0  0  0
  -17.1053    0.5988  -15.1546 O   0  0  0  0  0  0  0  0  0  0  0  0
  -16.1519    2.3551  -16.2112 N   0  0  0  0  0  0  0  0  0  0  0  0
  -14.9256    1.5993  -16.3890 C   0  0  0  0  0  0  0  0  0  0  0  0
  -14.0003    2.5661  -17.0967 C   0  0  0  0  0  0  0  0  0  0  0  0
  -14.4683    3.8283  -16.5895 N   0  0  0  0  0  0  0  0  0  0  0  0
  -15.8437    3.7399  -16.2746 C   0  0  0  0  0  0  0  0  0  0  0  0
  -16.6388    4.6494  -16.0995 O   0  0  0  0  0  0  0  0  0  0  0  0
  -18.2792    3.4865  -15.7462 H   0  0  0  0  0  0  0  0  0  0  0  0
  -13.7576    5.0216  -16.7615 C   0  0  0  0  0  0  0  0  0  0  0  0
  -13.9855    5.7645  -17.9321 C   0  0  0  0  0  0  0  0  0  0  0  0
  -13.3021    6.9606  -18.1621 C   0  0  0  0  0  0  0  0  0  0  0  0
  -12.3797    7.4209  -17.2302 C   0  0  0  0  0  0  0  0  0  0  0  0
  -12.1358    6.6774  -16.0759 C   0  0  0  0  0  0  0  0  0  0  0  0
  -12.8090    5.4715  -15.8248 C   0  0  0  0  0  0  0  0  0  0  0  0
  -12.3916    4.9034  -14.6520 O   0  0  0  0  0  0  0  0  0  0  0  0
  -11.0422    5.0071  -14.2401 C   0  0  0  0  0  0  0  0  0  0  0  0
  -22.8298    0.4653  -12.9947 O   0  0  0  0  0  0  0  0  0  0  0  0
  -26.5245   -1.5562  -10.6110 C   0  0  0  0  0  0  0  0  0  0  0  0
  -26.8748   -1.9970  -11.8581 C   0  0  0  0  0  0  0  0  0  0  0  0
  -26.0462   -1.4574  -12.8780 C   0  0  0  0  0  0  0  0  0  0  0  0
  -26.1967   -1.7371  -14.2015 N   0  0  0  0  0  0  0  0  0  0  0  0
  -25.2776   -1.2118  -15.0207 C   0  0  0  0  0  0  0  0  0  0  0  0
  -24.2064   -0.4523  -14.6086 C   0  0  0  0  0  0  0  0  0  0  0  0
  -24.0436   -0.1642  -13.2502 C   0  0  0  0  0  0  0  0  0  0  0  0
  -25.0154   -0.6538  -12.3627 C   0  0  0  0  0  0  0  0  0  0  0  0
  -25.2063   -0.4817  -10.6640 S   0  0  0  0  0  0  0  0  0  0  0  0
  -28.3731   -3.1328   -7.9319 N   0  0  0  0  0  0  0  0  0  0  0  0
  -27.9787   -1.9528   -7.3730 C   0  0  0  0  0  0  0  0  0  0  0  0
  -27.2450   -1.2517   -8.2097 N   0  0  0  0  0  0  0  0  0  0  0  0
  -27.2074   -1.9943   -9.3667 C   0  0  0  0  0  0  0  0  0  0  0  0
  -27.9031   -3.1705   -9.2114 C   0  0  0  0  0  0  0  0  0  0  0  0
  -30.1728   -3.6257   -6.3300 C   0  0  0  0  0  0  0  0  0  0  0  0
  -29.1365   -4.1802   -7.2887 C   0  0  0  0  0  0  0  0  0  0  0  0
 41 42  1  0  0  0
 42 36  1  0  0  0
 36 37  1  0  0  0
 36 40  1  0  0  0
 37 38  2  0  0  0
 38 39  1  0  0  0
 39 27  1  0  0  0
 39 40  2  0  0  0
 27 28  2  0  0  0
 27 35  1  0  0  0
 28 29  1  0  0  0
 29 30  1  0  0  0
 29 34  2  0  0  0
 30 31  2  0  0  0
 31 32  1  0  0  0
 32 33  2  0  0  0
 33 26  1  0  0  0
 33 34  1  0  0  0
 26  1  1  0  0  0
  1  2  1  0  0  0
  1  6  2  0  0  0
  2  3  2  0  0  0
  3  4  1  0  0  0
  4  8  1  0  0  0
  4  5  2  0  0  0
  8  9  1  0  0  0
  8 17  1  0  0  0
  9 10  2  0  0  0
  9 11  1  0  0  0
 11 12  1  0  0  0
 11 15  1  0  0  0
 12 13  1  0  0  0
 13 14  1  0  0  0
 14 18  1  0  0  0
 14 15  1  0  0  0
 18 19  1  0  0  0
 18 23  2  0  0  0
 19 20  2  0  0  0
 20 21  1  0  0  0
 21 22  2  0  0  0
 22 23  1  0  0  0
 23 24  1  0  0  0
 24 25  1  0  0  0
 15 16  2  0  0  0
  5  6  1  0  0  0
  6  7  1  0  0  0
 34 35  1  0  0  0
M  END
> <minimizedAffinity>
-9.31788

$$$$
