CHEMBL3754785


 30 32  0  0  0  0  0  0  0  0999 V2000
  -28.6652   -3.8112   -7.2845 C   0  0  0  0  0  0  0  0  0  0  0  0
  -28.1659   -3.4230   -8.5463 C   0  0  0  0  0  0  0  0  0  0  0  0
  -27.5708   -2.1888   -8.7751 C   0  0  0  0  0  0  0  0  0  0  0  0
  -27.5434   -1.2530   -7.7420 C   0  0  0  0  0  0  0  0  0  0  0  0
  -28.0912   -1.5605   -6.4914 C   0  0  0  0  0  0  0  0  0  0  0  0
  -28.6354   -2.8433   -6.2452 C   0  0  0  0  0  0  0  0  0  0  0  0
  -30.2256   -7.7675   -6.9723 C   0  0  0  0  0  0  0  0  0  0  0  0
  -29.1261   -7.5649   -7.7815 C   0  0  0  0  0  0  0  0  0  0  0  0
  -28.6052   -6.2754   -7.8629 C   0  0  0  0  0  0  0  0  0  0  0  0
  -29.1836   -5.2054   -7.1492 C   0  0  0  0  0  0  0  0  0  0  0  0
  -30.2810   -5.5454   -6.3655 C   0  0  0  0  0  0  0  0  0  0  0  0
  -30.8154   -6.7890   -6.2547 N   0  0  0  0  0  0  0  0  0  0  0  0
  -31.9879   -9.1796   -7.5259 C   0  0  0  0  0  0  0  0  0  0  0  0
  -30.7139   -9.0563   -6.9066 O   0  0  0  0  0  0  0  0  0  0  0  0
  -26.9897   -1.8427  -10.0003 N   0  0  0  0  0  0  0  0  0  0  0  0
  -27.6039   -1.3823  -11.1424 C   0  0  0  0  0  0  0  0  0  0  0  0
  -28.8118   -1.2913  -11.3462 O   0  0  0  0  0  0  0  0  0  0  0  0
  -26.7565   -0.8194  -12.0646 N   0  0  0  0  0  0  0  0  0  0  0  0
  -25.9838   -1.9522  -10.0873 H   0  0  0  0  0  0  0  0  0  0  0  0
  -27.2201   -0.1886  -12.7029 H   0  0  0  0  0  0  0  0  0  0  0  0
  -25.3708   -0.9042  -12.0658 C   0  0  0  0  0  0  0  0  0  0  0  0
  -24.6392    0.2704  -12.1314 C   0  0  0  0  0  0  0  0  0  0  0  0
  -23.2549    0.1859  -12.0705 C   0  0  0  0  0  0  0  0  0  0  0  0
  -22.6472   -1.0651  -12.0381 C   0  0  0  0  0  0  0  0  0  0  0  0
  -23.4541   -2.1869  -12.0059 C   0  0  0  0  0  0  0  0  0  0  0  0
  -24.7968   -2.1261  -11.9618 N   0  0  0  0  0  0  0  0  0  0  0  0
  -27.9882   -0.6594   -5.4582 O   0  0  0  0  0  0  0  0  0  0  0  0
  -28.4746    0.6490   -5.7550 C   0  0  0  0  0  0  0  0  0  0  0  0
  -29.0927   -3.2605   -5.0163 O   0  0  0  0  0  0  0  0  0  0  0  0
  -28.1249   -3.6636   -4.0540 C   0  0  0  0  0  0  0  0  0  0  0  0
 13 14  1  0  0  0
 14  7  1  0  0  0
  7  8  1  0  0  0
  7 12  2  0  0  0
  8  9  2  0  0  0
  9 10  1  0  0  0
 10  1  1  0  0  0
 10 11  2  0  0  0
  1  2  1  0  0  0
  1  6  2  0  0  0
  2  3  2  0  0  0
  3 15  1  0  0  0
  3  4  1  0  0  0
 15 16  1  0  0  0
 15 19  1  0  0  0
 16 17  2  0  0  0
 16 18  1  0  0  0
 18 21  1  0  0  0
 18 20  1  0  0  0
 21 22  1  0  0  0
 21 26  2  0  0  0
 22 23  2  0  0  0
 23 24  1  0  0  0
 24 25  2  0  0  0
 25 26  1  0  0  0
  4  5  2  0  0  0
  5 27  1  0  0  0
  5  6  1  0  0  0
 27 28  1  0  0  0
  6 29  1  0  0  0
 29 30  1  0  0  0
 11 12  1  0  0  0
M  END
> <minimizedAffinity>
-8.38427

$$$$
