CHEMBL396472


 36 39  0  0  0  0  0  0  0  0999 V2000
  -27.8637   -2.2931  -10.2986 N   0  0  0  0  0  0  0  0  0  0  0  0
  -28.7803   -2.2102  -10.7445 H   0  0  0  0  0  0  0  0  0  0  0  0
  -28.6994   -5.0650   -6.0719 C   0  0  0  0  0  0  0  0  0  0  0  0
  -28.4996   -3.7038   -5.7157 C   0  0  0  0  0  0  0  0  0  0  0  0
  -28.2149   -2.6878   -6.6387 C   0  0  0  0  0  0  0  0  0  0  0  0
  -28.0403   -1.4150   -6.2390 N   0  0  0  0  0  0  0  0  0  0  0  0
  -27.8082   -0.5128   -7.1920 C   0  0  0  0  0  0  0  0  0  0  0  0
  -27.7632   -0.7301   -8.5002 N   0  0  0  0  0  0  0  0  0  0  0  0
  -27.9160   -2.0110   -8.9108 C   0  0  0  0  0  0  0  0  0  0  0  0
  -28.1146   -3.0454   -7.9784 C   0  0  0  0  0  0  0  0  0  0  0  0
  -28.2196   -4.4005   -8.3300 C   0  0  0  0  0  0  0  0  0  0  0  0
  -28.5804   -5.4143   -7.4194 C   0  0  0  0  0  0  0  0  0  0  0  0
  -28.7356   -6.5509   -8.1453 O   0  0  0  0  0  0  0  0  0  0  0  0
  -29.6673   -7.5782   -7.9055 C   0  0  0  0  0  0  0  0  0  0  0  0
  -28.9723   -5.8387   -4.9619 O   0  0  0  0  0  0  0  0  0  0  0  0
  -29.7188   -5.2202   -3.9319 C   0  0  0  0  0  0  0  0  0  0  0  0
  -31.2240   -5.4184   -3.9915 C   0  0  0  0  0  0  0  0  0  0  0  0
  -30.9587   -3.2608   -3.0335 C   0  0  0  0  0  0  0  0  0  0  0  0
  -31.7662   -4.4198   -3.1142 O   0  0  0  0  0  0  0  0  0  0  0  0
  -26.8371   -1.9254  -11.1656 C   0  0  0  0  0  0  0  0  0  0  0  0
  -25.5872   -1.6009  -10.8109 C   0  0  0  0  0  0  0  0  0  0  0  0
  -24.5581   -1.0948  -11.7407 C   0  0  0  0  0  0  0  0  0  0  0  0
  -23.4727   -0.7388  -11.2918 O   0  0  0  0  0  0  0  0  0  0  0  0
  -24.9194   -1.0002  -13.1808 C   0  0  0  0  0  0  0  0  0  0  0  0
  -26.1316   -1.4079  -13.5695 C   0  0  0  0  0  0  0  0  0  0  0  0
  -27.1533   -1.9173  -12.6304 C   0  0  0  0  0  0  0  0  0  0  0  0
  -28.2387   -2.3134  -13.0487 O   0  0  0  0  0  0  0  0  0  0  0  0
  -24.0710   -0.4652  -14.1375 O   0  0  0  0  0  0  0  0  0  0  0  0
  -22.6631   -0.6631  -13.9633 C   0  0  0  0  0  0  0  0  0  0  0  0
  -21.9360    0.6375  -14.2367 C   0  0  0  0  0  0  0  0  0  0  0  0
  -22.4905    1.8860  -13.9075 C   0  0  0  0  0  0  0  0  0  0  0  0
  -21.8137    3.0722  -14.2093 C   0  0  0  0  0  0  0  0  0  0  0  0
  -20.5644    3.0236  -14.8234 C   0  0  0  0  0  0  0  0  0  0  0  0
  -19.9944    1.7905  -15.1121 C   0  0  0  0  0  0  0  0  0  0  0  0
  -18.7872    1.7412  -15.6903 F   0  0  0  0  0  0  0  0  0  0  0  0
  -20.6601    0.6043  -14.8189 C   0  0  0  0  0  0  0  0  0  0  0  0
 18 19  1  0  0  0
 19 17  1  0  0  0
 17 16  1  0  0  0
 16 15  1  0  0  0
 15  3  1  0  0  0
  3  4  1  0  0  0
  3 12  2  0  0  0
  4  5  2  0  0  0
  5  6  1  0  0  0
  5 10  1  0  0  0
  6  7  2  0  0  0
  7  8  1  0  0  0
  8  9  2  0  0  0
  9  1  1  0  0  0
  9 10  1  0  0  0
  1 20  1  0  0  0
  1  2  1  0  0  0
 20 21  2  0  0  0
 20 26  1  0  0  0
 21 22  1  0  0  0
 22 23  2  0  0  0
 22 24  1  0  0  0
 24 28  1  0  0  0
 24 25  2  0  0  0
 28 29  1  0  0  0
 29 30  1  0  0  0
 30 31  1  0  0  0
 30 36  2  0  0  0
 31 32  2  0  0  0
 32 33  1  0  0  0
 33 34  2  0  0  0
 34 35  1  0  0  0
 34 36  1  0  0  0
 25 26  1  0  0  0
 26 27  2  0  0  0
 10 11  2  0  0  0
 11 12  1  0  0  0
 12 13  1  0  0  0
 13 14  1  0  0  0
M  END
> <minimizedAffinity>
-9.76597

$$$$
