CHEMBL432491


 29 32  0  0  0  0  0  0  0  0999 V2000
  -18.2435    1.7060  -14.6095 C   0  0  0  0  0  0  0  0  0  0  0  0
  -18.3690    3.0975  -14.4212 C   0  0  0  0  0  0  0  0  0  0  0  0
  -19.6260    3.6591  -14.1979 C   0  0  0  0  0  0  0  0  0  0  0  0
  -20.7108    2.8030  -14.1784 C   0  0  0  0  0  0  0  0  0  0  0  0
  -20.5982    1.4164  -14.3538 C   0  0  0  0  0  0  0  0  0  0  0  0
  -19.3560    0.8472  -14.5700 C   0  0  0  0  0  0  0  0  0  0  0  0
  -21.9690    0.8866  -14.2510 C   0  0  0  0  0  0  0  0  0  0  0  0
  -22.3372   -0.4055  -14.2845 C   0  0  0  0  0  0  0  0  0  0  0  0
  -22.8837    2.0750  -14.0552 C   0  0  0  0  0  0  0  0  0  0  0  0
  -24.0956    2.1098  -13.9807 O   0  0  0  0  0  0  0  0  0  0  0  0
  -22.0375    3.1693  -14.0013 N   0  0  0  0  0  0  0  0  0  0  0  0
  -22.3836    4.1098  -13.8829 H   0  0  0  0  0  0  0  0  0  0  0  0
  -23.6744   -0.8121  -14.0688 C   0  0  0  0  0  0  0  0  0  0  0  0
  -24.5533   -0.8407  -15.1292 N   0  0  0  0  0  0  0  0  0  0  0  0
  -25.7944   -1.2465  -14.6970 C   0  0  0  0  0  0  0  0  0  0  0  0
  -25.7186   -1.4727  -13.3395 C   0  0  0  0  0  0  0  0  0  0  0  0
  -24.3795   -1.2018  -12.9495 C   0  0  0  0  0  0  0  0  0  0  0  0
  -23.9808   -1.3420  -11.5299 C   0  0  0  0  0  0  0  0  0  0  0  0
  -25.2333   -1.2164  -10.6523 C   0  0  0  0  0  0  0  0  0  0  0  0
  -26.3559   -2.0161  -11.1056 O   0  0  0  0  0  0  0  0  0  0  0  0
  -26.7572   -1.9121  -12.4186 C   0  0  0  0  0  0  0  0  0  0  0  0
  -27.8884   -2.2238  -12.7724 O   0  0  0  0  0  0  0  0  0  0  0  0
  -24.3343   -0.5731  -16.0792 H   0  0  0  0  0  0  0  0  0  0  0  0
  -16.9074   -0.6211  -14.7515 N   0  0  0  0  0  0  0  0  0  0  0  0
  -16.6300    1.0292  -14.8836 S   0  0  0  0  0  0  0  0  0  0  0  0
  -15.7797    1.4022  -13.7721 O   0  0  0  0  0  0  0  0  0  0  0  0
  -16.2557    1.2458  -16.2590 O   0  0  0  0  0  0  0  0  0  0  0  0
  -16.1725   -1.0432  -14.1791 H   0  0  0  0  0  0  0  0  0  0  0  0
  -16.9872   -1.0407  -15.6751 H   0  0  0  0  0  0  0  0  0  0  0  0
 24 25  1  0  0  0
 24 28  1  0  0  0
 24 29  1  0  0  0
 25 26  2  0  0  0
 25 27  2  0  0  0
 25  1  1  0  0  0
  1  2  1  0  0  0
  1  6  2  0  0  0
  2  3  2  0  0  0
  3  4  1  0  0  0
  4  5  2  0  0  0
  4 11  1  0  0  0
  5  6  1  0  0  0
  5  7  1  0  0  0
  7  8  2  0  0  0
  7  9  1  0  0  0
  8 13  1  0  0  0
 13 14  1  0  0  0
 13 17  2  0  0  0
 14 15  1  0  0  0
 14 23  1  0  0  0
 15 16  2  0  0  0
 16 17  1  0  0  0
 16 21  1  0  0  0
 17 18  1  0  0  0
 18 19  1  0  0  0
 19 20  1  0  0  0
 20 21  1  0  0  0
 21 22  2  0  0  0
  9 10  2  0  0  0
  9 11  1  0  0  0
 11 12  1  0  0  0
M  END
> <minimizedAffinity>
-8.69082

$$$$
