CHEMBL247619


 40 43  0  0  0  0  0  0  0  0999 V2000
  -25.5599   -1.0762  -13.0044 C   0  0  0  0  0  0  0  0  0  0  0  0
  -26.5191   -1.5910  -12.1370 C   0  0  0  0  0  0  0  0  0  0  0  0
  -27.5283   -2.1106  -12.9760 C   0  0  0  0  0  0  0  0  0  0  0  0
  -27.2839   -1.9065  -14.2647 N   0  0  0  0  0  0  0  0  0  0  0  0
  -26.0624   -1.3349  -14.2747 N   0  0  0  0  0  0  0  0  0  0  0  0
  -25.4289   -1.1913  -15.5650 C   0  0  0  0  0  0  0  0  0  0  0  0
  -26.5616   -1.6794  -10.6888 C   0  0  0  0  0  0  0  0  0  0  0  0
  -25.5184   -1.6320  -10.0479 O   0  0  0  0  0  0  0  0  0  0  0  0
  -27.8166   -1.9392  -10.1438 N   0  0  0  0  0  0  0  0  0  0  0  0
  -28.5435   -2.1782  -10.8115 H   0  0  0  0  0  0  0  0  0  0  0  0
  -28.0703   -2.1817   -8.7680 C   0  0  0  0  0  0  0  0  0  0  0  0
  -27.7931   -1.2436   -7.7660 C   0  0  0  0  0  0  0  0  0  0  0  0
  -28.0151   -1.5329   -6.4164 C   0  0  0  0  0  0  0  0  0  0  0  0
  -28.5215   -2.7704   -6.0425 C   0  0  0  0  0  0  0  0  0  0  0  0
  -28.7998   -3.7247   -7.0263 C   0  0  0  0  0  0  0  0  0  0  0  0
  -28.6044   -3.4213   -8.3845 C   0  0  0  0  0  0  0  0  0  0  0  0
  -29.2539   -4.9900   -6.7406 O   0  0  0  0  0  0  0  0  0  0  0  0
  -29.0739   -5.3096   -5.3572 C   0  0  0  0  0  0  0  0  0  0  0  0
  -27.7771   -5.6952   -5.1953 F   0  0  0  0  0  0  0  0  0  0  0  0
  -29.8304   -6.4094   -5.0966 F   0  0  0  0  0  0  0  0  0  0  0  0
  -29.4361   -4.1475   -4.4212 C   0  0  0  0  0  0  0  0  0  0  0  0
  -30.7580   -3.8315   -4.5087 F   0  0  0  0  0  0  0  0  0  0  0  0
  -29.2081   -4.4658   -3.1183 F   0  0  0  0  0  0  0  0  0  0  0  0
  -28.6985   -2.9599   -4.6991 O   0  0  0  0  0  0  0  0  0  0  0  0
  -24.3274   -0.5537  -12.7278 N   0  0  0  0  0  0  0  0  0  0  0  0
  -23.6409   -1.1253  -12.2347 H   0  0  0  0  0  0  0  0  0  0  0  0
  -23.9876    0.8629  -12.7375 C   0  0  0  0  0  0  0  0  0  0  0  0
  -20.5132    1.9894  -14.9405 C   0  0  0  0  0  0  0  0  0  0  0  0
  -20.7839    0.6324  -14.8302 C   0  0  0  0  0  0  0  0  0  0  0  0
  -21.8884    0.2239  -14.0808 C   0  0  0  0  0  0  0  0  0  0  0  0
  -22.7153    1.1777  -13.4832 C   0  0  0  0  0  0  0  0  0  0  0  0
  -22.3251    2.5095  -13.6226 C   0  0  0  0  0  0  0  0  0  0  0  0
  -21.2299    2.9317  -14.2983 N   0  0  0  0  0  0  0  0  0  0  0  0
  -15.8879    2.9708  -15.9758 C   0  0  0  0  0  0  0  0  0  0  0  0
  -17.3051    2.9395  -16.2521 N   0  0  0  0  0  0  0  0  0  0  0  0
  -18.1753    2.5065  -15.2744 C   0  0  0  0  0  0  0  0  0  0  0  0
  -17.8030    2.1548  -14.1622 O   0  0  0  0  0  0  0  0  0  0  0  0
  -19.4702    2.4727  -15.7387 N   0  0  0  0  0  0  0  0  0  0  0  0
  -17.6772    3.6366  -16.8819 H   0  0  0  0  0  0  0  0  0  0  0  0
  -19.5513    2.1661  -16.6966 H   0  0  0  0  0  0  0  0  0  0  0  0
 34 35  1  0  0  0
 35 36  1  0  0  0
 35 39  1  0  0  0
 36 37  2  0  0  0
 36 38  1  0  0  0
 38 28  1  0  0  0
 38 40  1  0  0  0
 28 29  1  0  0  0
 28 33  2  0  0  0
 29 30  2  0  0  0
 30 31  1  0  0  0
 31 27  1  0  0  0
 31 32  2  0  0  0
 27 25  1  0  0  0
 25  1  1  0  0  0
 25 26  1  0  0  0
  1  2  2  0  0  0
  1  5  1  0  0  0
  2  7  1  0  0  0
  2  3  1  0  0  0
  7  8  2  0  0  0
  7  9  1  0  0  0
  9 11  1  0  0  0
  9 10  1  0  0  0
 11 12  1  0  0  0
 11 16  2  0  0  0
 12 13  2  0  0  0
 13 14  1  0  0  0
 14 15  2  0  0  0
 14 24  1  0  0  0
 15 16  1  0  0  0
 15 17  1  0  0  0
 17 18  1  0  0  0
 18 19  1  0  0  0
 18 20  1  0  0  0
 18 21  1  0  0  0
 21 22  1  0  0  0
 21 23  1  0  0  0
 21 24  1  0  0  0
  3  4  2  0  0  0
  4  5  1  0  0  0
  5  6  1  0  0  0
 32 33  1  0  0  0
M  END
> <minimizedAffinity>
-11.09050

$$$$
