CHEMBL3287305


 44 48  0  0  0  0  0  0  0  0999 V2000
  -25.2971   -1.3007  -13.0872 C   0  0  0  0  0  0  0  0  0  0  0  0
  -26.6547   -1.6012  -13.1507 C   0  0  0  0  0  0  0  0  0  0  0  0
  -27.3274   -2.0412  -12.0044 C   0  0  0  0  0  0  0  0  0  0  0  0
  -26.6512   -2.1847  -10.7879 C   0  0  0  0  0  0  0  0  0  0  0  0
  -25.2751   -1.9367  -10.7500 C   0  0  0  0  0  0  0  0  0  0  0  0
  -24.5986   -1.5175  -11.8977 C   0  0  0  0  0  0  0  0  0  0  0  0
  -27.2748   -2.5637   -9.5819 N   0  0  0  0  0  0  0  0  0  0  0  0
  -27.6420   -1.7346   -8.5429 C   0  0  0  0  0  0  0  0  0  0  0  0
  -27.4942   -0.5242   -8.4590 O   0  0  0  0  0  0  0  0  0  0  0  0
  -27.4158   -3.5588   -9.4390 H   0  0  0  0  0  0  0  0  0  0  0  0
  -28.2602   -2.4465   -7.3820 C   0  0  0  0  0  0  0  0  0  0  0  0
  -28.7897   -1.6100   -6.2102 C   0  0  0  0  0  0  0  0  0  0  0  0
  -27.5196   -2.3790   -6.0461 C   0  0  0  0  0  0  0  0  0  0  0  0
  -29.0188   -3.6928   -7.7173 C   0  0  0  0  0  0  0  0  0  0  0  0
  -29.9317   -3.5977   -8.5311 O   0  0  0  0  0  0  0  0  0  0  0  0
  -28.6100   -4.8311   -7.0495 N   0  0  0  0  0  0  0  0  0  0  0  0
  -27.8871   -4.7208   -6.3434 H   0  0  0  0  0  0  0  0  0  0  0  0
  -29.1976   -6.1106   -7.1842 C   0  0  0  0  0  0  0  0  0  0  0  0
  -28.7117   -7.0691   -8.0803 C   0  0  0  0  0  0  0  0  0  0  0  0
  -29.3813   -8.2787   -8.2755 C   0  0  0  0  0  0  0  0  0  0  0  0
  -30.5386   -8.5477   -7.5576 C   0  0  0  0  0  0  0  0  0  0  0  0
  -31.3975  -10.0088   -7.8475 Cl  0  0  0  0  0  0  0  0  0  0  0  0
  -31.0046   -7.6339   -6.6140 C   0  0  0  0  0  0  0  0  0  0  0  0
  -30.3269   -6.4210   -6.4171 C   0  0  0  0  0  0  0  0  0  0  0  0
  -24.6955   -0.8380  -14.2374 O   0  0  0  0  0  0  0  0  0  0  0  0
  -21.4483    0.6009  -14.4828 C   0  0  0  0  0  0  0  0  0  0  0  0
  -21.5931    1.7754  -13.8437 N   0  0  0  0  0  0  0  0  0  0  0  0
  -22.7999    2.0530  -13.3204 C   0  0  0  0  0  0  0  0  0  0  0  0
  -23.8697    1.2015  -13.4023 C   0  0  0  0  0  0  0  0  0  0  0  0
  -23.6225    0.0327  -14.0761 C   0  0  0  0  0  0  0  0  0  0  0  0
  -22.4230   -0.3016  -14.5919 N   0  0  0  0  0  0  0  0  0  0  0  0
  -20.2409    0.2837  -15.1129 N   0  0  0  0  0  0  0  0  0  0  0  0
  -20.0059   -0.6633  -14.8359 H   0  0  0  0  0  0  0  0  0  0  0  0
  -16.7012    1.4716  -15.0810 C   0  0  0  0  0  0  0  0  0  0  0  0
  -16.8959    2.8231  -15.3861 C   0  0  0  0  0  0  0  0  0  0  0  0
  -18.1795    3.3140  -15.6306 C   0  0  0  0  0  0  0  0  0  0  0  0
  -19.2829    2.4638  -15.5488 C   0  0  0  0  0  0  0  0  0  0  0  0
  -19.1188    1.1261  -15.1846 C   0  0  0  0  0  0  0  0  0  0  0  0
  -17.8212    0.6341  -14.9965 C   0  0  0  0  0  0  0  0  0  0  0  0
  -15.3231    0.9092  -14.8692 C   0  0  0  0  0  0  0  0  0  0  0  0
  -14.7202   -1.3292  -13.2276 C   0  0  0  0  0  0  0  0  0  0  0  0
  -15.0655    0.4146  -13.1725 S   0  0  0  0  0  0  0  0  0  0  0  0
  -16.2878    0.6159  -12.4163 O   0  0  0  0  0  0  0  0  0  0  0  0
  -13.8393    1.0623  -12.7249 O   0  0  0  0  0  0  0  0  0  0  0  0
 41 42  1  0  0  0
 42 43  2  0  0  0
 42 44  2  0  0  0
 42 40  1  0  0  0
 40 34  1  0  0  0
 34 35  1  0  0  0
 34 39  2  0  0  0
 35 36  2  0  0  0
 36 37  1  0  0  0
 37 38  2  0  0  0
 38 32  1  0  0  0
 38 39  1  0  0  0
 32 26  1  0  0  0
 32 33  1  0  0  0
 26 27  1  0  0  0
 26 31  2  0  0  0
 27 28  2  0  0  0
 28 29  1  0  0  0
 29 30  2  0  0  0
 30 25  1  0  0  0
 30 31  1  0  0  0
 25  1  1  0  0  0
  1  2  1  0  0  0
  1  6  2  0  0  0
  2  3  2  0  0  0
  3  4  1  0  0  0
  4  7  1  0  0  0
  4  5  2  0  0  0
  7  8  1  0  0  0
  7 10  1  0  0  0
  8  9  2  0  0  0
  8 11  1  0  0  0
 11 14  1  0  0  0
 11 12  1  0  0  0
 11 13  1  0  0  0
 14 15  2  0  0  0
 14 16  1  0  0  0
 16 18  1  0  0  0
 16 17  1  0  0  0
 18 19  1  0  0  0
 18 24  2  0  0  0
 19 20  2  0  0  0
 20 21  1  0  0  0
 21 22  1  0  0  0
 21 23  2  0  0  0
 23 24  1  0  0  0
 12 13  1  0  0  0
  5  6  1  0  0  0
M  END
> <minimizedAffinity>
-10.06688

$$$$
