CHEMBL253292


 36 38  0  0  0  0  0  0  0  0999 V2000
  -25.3668   -1.5451  -12.3608 C   0  0  0  0  0  0  0  0  0  0  0  0
  -25.9490   -1.2514  -11.1447 C   0  0  0  0  0  0  0  0  0  0  0  0
  -27.3079   -1.4341  -11.0358 C   0  0  0  0  0  0  0  0  0  0  0  0
  -28.0842   -1.7628  -12.0744 N   0  0  0  0  0  0  0  0  0  0  0  0
  -27.4260   -2.0199  -13.2148 C   0  0  0  0  0  0  0  0  0  0  0  0
  -26.1007   -1.9256  -13.4174 N   0  0  0  0  0  0  0  0  0  0  0  0
  -27.9541   -1.3009   -9.8009 N   0  0  0  0  0  0  0  0  0  0  0  0
  -27.8081   -2.2645   -8.8184 C   0  0  0  0  0  0  0  0  0  0  0  0
  -27.1453   -3.2882   -8.9510 O   0  0  0  0  0  0  0  0  0  0  0  0
  -28.5512   -1.9603   -7.6903 N   0  0  0  0  0  0  0  0  0  0  0  0
  -28.8567   -0.8606   -9.8777 H   0  0  0  0  0  0  0  0  0  0  0  0
  -29.4299   -1.5023   -7.8917 H   0  0  0  0  0  0  0  0  0  0  0  0
  -28.5796   -2.8180   -6.5519 C   0  0  0  0  0  0  0  0  0  0  0  0
  -27.8556   -2.5799   -5.3682 C   0  0  0  0  0  0  0  0  0  0  0  0
  -26.9940   -1.1085   -5.0601 Cl  0  0  0  0  0  0  0  0  0  0  0  0
  -27.9132   -3.4957   -4.3080 C   0  0  0  0  0  0  0  0  0  0  0  0
  -28.7046   -4.6397   -4.3997 C   0  0  0  0  0  0  0  0  0  0  0  0
  -29.4594   -4.8660   -5.5471 C   0  0  0  0  0  0  0  0  0  0  0  0
  -29.4045   -3.9577   -6.6081 C   0  0  0  0  0  0  0  0  0  0  0  0
  -30.3500   -4.3037   -8.0191 Cl  0  0  0  0  0  0  0  0  0  0  0  0
  -23.9788   -1.4049  -12.5402 N   0  0  0  0  0  0  0  0  0  0  0  0
  -23.4921   -1.8088  -11.7467 H   0  0  0  0  0  0  0  0  0  0  0  0
  -21.9934    1.9053  -14.2729 C   0  0  0  0  0  0  0  0  0  0  0  0
  -23.1143    2.1019  -13.4703 C   0  0  0  0  0  0  0  0  0  0  0  0
  -23.7501    1.0157  -12.8717 C   0  0  0  0  0  0  0  0  0  0  0  0
  -23.3125   -0.2914  -13.0949 C   0  0  0  0  0  0  0  0  0  0  0  0
  -22.1787   -0.4862  -13.8905 C   0  0  0  0  0  0  0  0  0  0  0  0
  -21.5367    0.6053  -14.4937 C   0  0  0  0  0  0  0  0  0  0  0  0
  -21.2982    2.9051  -14.9036 O   0  0  0  0  0  0  0  0  0  0  0  0
  -20.0290    3.2127  -14.3092 C   0  0  0  0  0  0  0  0  0  0  0  0
  -18.9487    3.2696  -15.3980 C   0  0  0  0  0  0  0  0  0  0  0  0
  -18.0318    2.1067  -15.4304 N   0  0  0  0  0  0  0  0  0  0  0  0
  -16.5165    4.0363  -16.0257 C   0  0  0  0  0  0  0  0  0  0  0  0
  -16.7324    2.5264  -15.9850 C   0  0  0  0  0  0  0  0  0  0  0  0
  -17.9315    1.3809  -14.1541 C   0  0  0  0  0  0  0  0  0  0  0  0
  -16.5427    0.8816  -13.7681 C   0  0  0  0  0  0  0  0  0  0  0  0
 33 34  1  0  0  0
 34 32  1  0  0  0
 32 35  1  0  0  0
 32 31  1  0  0  0
 35 36  1  0  0  0
 31 30  1  0  0  0
 30 29  1  0  0  0
 29 23  1  0  0  0
 23 24  1  0  0  0
 23 28  2  0  0  0
 24 25  2  0  0  0
 25 26  1  0  0  0
 26 21  1  0  0  0
 26 27  2  0  0  0
 21  1  1  0  0  0
 21 22  1  0  0  0
  1  2  1  0  0  0
  1  6  2  0  0  0
  2  3  2  0  0  0
  3  7  1  0  0  0
  3  4  1  0  0  0
  7  8  1  0  0  0
  7 11  1  0  0  0
  8  9  2  0  0  0
  8 10  1  0  0  0
 10 13  1  0  0  0
 10 12  1  0  0  0
 13 14  1  0  0  0
 13 19  2  0  0  0
 14 15  1  0  0  0
 14 16  2  0  0  0
 16 17  1  0  0  0
 17 18  2  0  0  0
 18 19  1  0  0  0
 19 20  1  0  0  0
  4  5  2  0  0  0
  5  6  1  0  0  0
 27 28  1  0  0  0
M  END
> <minimizedAffinity>
-8.93276

$$$$
