CHEMBL3920784


 36 39  0  0  0  0  0  0  0  0999 V2000
  -22.3810   -0.0572  -13.7294 C   0  0  0  0  0  0  0  0  0  0  0  0
  -23.5199   -0.2794  -14.5093 C   0  0  0  0  0  0  0  0  0  0  0  0
  -24.6789   -0.8395  -13.9565 C   0  0  0  0  0  0  0  0  0  0  0  0
  -24.7136   -1.2467  -12.6226 C   0  0  0  0  0  0  0  0  0  0  0  0
  -23.5649   -1.0880  -11.8482 C   0  0  0  0  0  0  0  0  0  0  0  0
  -22.4120   -0.5042  -12.3986 C   0  0  0  0  0  0  0  0  0  0  0  0
  -22.4735    3.0346  -13.1349 N   0  0  0  0  0  0  0  0  0  0  0  0
  -21.9904    3.0093  -14.4101 C   0  0  0  0  0  0  0  0  0  0  0  0
  -22.2250    3.8360  -15.2759 O   0  0  0  0  0  0  0  0  0  0  0  0
  -21.0589    1.9690  -14.6143 N   0  0  0  0  0  0  0  0  0  0  0  0
  -21.1764    0.6102  -14.2658 C   0  0  0  0  0  0  0  0  0  0  0  0
  -19.9544    0.0222  -14.5656 C   0  0  0  0  0  0  0  0  0  0  0  0
  -19.0737    1.0028  -15.0745 C   0  0  0  0  0  0  0  0  0  0  0  0
  -17.7251    0.9829  -15.4796 C   0  0  0  0  0  0  0  0  0  0  0  0
  -17.1145    2.1630  -15.9097 C   0  0  0  0  0  0  0  0  0  0  0  0
  -17.8355    3.3525  -15.9630 C   0  0  0  0  0  0  0  0  0  0  0  0
  -19.1778    3.3883  -15.5885 C   0  0  0  0  0  0  0  0  0  0  0  0
  -19.7849    2.1989  -15.1393 C   0  0  0  0  0  0  0  0  0  0  0  0
  -23.0472    3.8254  -12.8738 H   0  0  0  0  0  0  0  0  0  0  0  0
  -22.0711    2.4691  -12.3988 H   0  0  0  0  0  0  0  0  0  0  0  0
  -25.8789   -1.7672  -12.0165 N   0  0  0  0  0  0  0  0  0  0  0  0
  -26.2003   -1.6510  -10.6767 C   0  0  0  0  0  0  0  0  0  0  0  0
  -25.6467   -0.8884   -9.8834 O   0  0  0  0  0  0  0  0  0  0  0  0
  -27.2135   -2.5286  -10.3191 N   0  0  0  0  0  0  0  0  0  0  0  0
  -26.6396   -2.0385  -12.6246 H   0  0  0  0  0  0  0  0  0  0  0  0
  -27.1534   -3.4194  -10.7925 H   0  0  0  0  0  0  0  0  0  0  0  0
  -27.7234   -2.5531   -9.0009 C   0  0  0  0  0  0  0  0  0  0  0  0
  -28.2207   -3.7535   -8.4916 C   0  0  0  0  0  0  0  0  0  0  0  0
  -28.6975   -3.8107   -7.1811 C   0  0  0  0  0  0  0  0  0  0  0  0
  -28.7405   -2.6560   -6.3983 C   0  0  0  0  0  0  0  0  0  0  0  0
  -28.2925   -1.4314   -6.9132 C   0  0  0  0  0  0  0  0  0  0  0  0
  -27.7546   -1.3980   -8.2108 C   0  0  0  0  0  0  0  0  0  0  0  0
  -28.4094   -0.1588   -6.1111 C   0  0  0  0  0  0  0  0  0  0  0  0
  -29.5252   -0.1144   -5.3283 F   0  0  0  0  0  0  0  0  0  0  0  0
  -27.3580    0.0449   -5.2717 F   0  0  0  0  0  0  0  0  0  0  0  0
  -28.4775    0.9469   -6.9048 F   0  0  0  0  0  0  0  0  0  0  0  0
  7  8  1  0  0  0
  7 19  1  0  0  0
  7 20  1  0  0  0
  8  9  2  0  0  0
  8 10  1  0  0  0
 10 11  1  0  0  0
 10 18  1  0  0  0
 11  1  1  0  0  0
 11 12  2  0  0  0
  1  2  1  0  0  0
  1  6  2  0  0  0
  2  3  2  0  0  0
  3  4  1  0  0  0
  4 21  1  0  0  0
  4  5  2  0  0  0
 21 22  1  0  0  0
 21 25  1  0  0  0
 22 23  2  0  0  0
 22 24  1  0  0  0
 24 27  1  0  0  0
 24 26  1  0  0  0
 27 28  1  0  0  0
 27 32  2  0  0  0
 28 29  2  0  0  0
 29 30  1  0  0  0
 30 31  2  0  0  0
 31 33  1  0  0  0
 31 32  1  0  0  0
 33 34  1  0  0  0
 33 35  1  0  0  0
 33 36  1  0  0  0
  5  6  1  0  0  0
 12 13  1  0  0  0
 13 14  1  0  0  0
 13 18  2  0  0  0
 14 15  2  0  0  0
 15 16  1  0  0  0
 16 17  2  0  0  0
 17 18  1  0  0  0
M  END
> <minimizedAffinity>
-10.70712

$$$$
