CHEMBL362634


 34 37  0  0  0  0  0  0  0  0999 V2000
  -22.9497   -0.6611  -13.3909 C   0  0  0  0  0  0  0  0  0  0  0  0
  -22.7734   -0.8954  -12.0335 C   0  0  0  0  0  0  0  0  0  0  0  0
  -23.8059   -1.4838  -11.2986 C   0  0  0  0  0  0  0  0  0  0  0  0
  -25.0512   -1.7590  -11.8744 C   0  0  0  0  0  0  0  0  0  0  0  0
  -25.2657   -1.3604  -13.2010 C   0  0  0  0  0  0  0  0  0  0  0  0
  -24.2193   -0.8155  -13.9522 C   0  0  0  0  0  0  0  0  0  0  0  0
  -26.0820   -2.4670  -11.2092 N   0  0  0  0  0  0  0  0  0  0  0  0
  -26.6650   -2.0996  -10.0150 C   0  0  0  0  0  0  0  0  0  0  0  0
  -26.4568   -1.0377   -9.4325 O   0  0  0  0  0  0  0  0  0  0  0  0
  -27.4963   -3.0865   -9.4993 N   0  0  0  0  0  0  0  0  0  0  0  0
  -26.4434   -3.2941  -11.6607 H   0  0  0  0  0  0  0  0  0  0  0  0
  -27.1794   -4.0303   -9.6641 H   0  0  0  0  0  0  0  0  0  0  0  0
  -28.1701   -2.8576   -8.2725 C   0  0  0  0  0  0  0  0  0  0  0  0
  -27.9077   -1.7154   -7.5075 C   0  0  0  0  0  0  0  0  0  0  0  0
  -28.4699   -1.5622   -6.2410 C   0  0  0  0  0  0  0  0  0  0  0  0
  -29.3071   -2.5522   -5.7201 C   0  0  0  0  0  0  0  0  0  0  0  0
  -29.8500   -2.4345   -4.3271 C   0  0  0  0  0  0  0  0  0  0  0  0
  -29.6053   -3.6732   -6.5068 C   0  0  0  0  0  0  0  0  0  0  0  0
  -29.0594   -3.8159   -7.7885 C   0  0  0  0  0  0  0  0  0  0  0  0
  -21.9384   -0.3183  -14.2532 O   0  0  0  0  0  0  0  0  0  0  0  0
  -17.6165    2.5270  -15.2419 C   0  0  0  0  0  0  0  0  0  0  0  0
  -18.7208    3.3430  -14.9690 C   0  0  0  0  0  0  0  0  0  0  0  0
  -19.9780    2.8298  -14.6901 C   0  0  0  0  0  0  0  0  0  0  0  0
  -20.9608    3.7184  -14.4819 N   0  0  0  0  0  0  0  0  0  0  0  0
  -22.2012    3.2577  -14.2378 C   0  0  0  0  0  0  0  0  0  0  0  0
  -22.5113    1.9200  -14.1556 C   0  0  0  0  0  0  0  0  0  0  0  0
  -21.4886    0.9896  -14.3418 C   0  0  0  0  0  0  0  0  0  0  0  0
  -20.1723    1.4315  -14.6667 C   0  0  0  0  0  0  0  0  0  0  0  0
  -19.0422    0.6191  -14.9609 C   0  0  0  0  0  0  0  0  0  0  0  0
  -17.7639    1.1465  -15.1627 C   0  0  0  0  0  0  0  0  0  0  0  0
  -16.4549    4.4288  -15.9706 C   0  0  0  0  0  0  0  0  0  0  0  0
  -16.4021    3.0487  -15.6052 O   0  0  0  0  0  0  0  0  0  0  0  0
  -16.7819    0.2058  -15.3268 O   0  0  0  0  0  0  0  0  0  0  0  0
  -16.0453   -0.1333  -14.1537 C   0  0  0  0  0  0  0  0  0  0  0  0
 31 32  1  0  0  0
 32 21  1  0  0  0
 21 22  1  0  0  0
 21 30  2  0  0  0
 22 23  2  0  0  0
 23 24  1  0  0  0
 23 28  1  0  0  0
 24 25  2  0  0  0
 25 26  1  0  0  0
 26 27  2  0  0  0
 27 20  1  0  0  0
 27 28  1  0  0  0
 20  1  1  0  0  0
  1  2  1  0  0  0
  1  6  2  0  0  0
  2  3  2  0  0  0
  3  4  1  0  0  0
  4  7  1  0  0  0
  4  5  2  0  0  0
  7  8  1  0  0  0
  7 11  1  0  0  0
  8  9  2  0  0  0
  8 10  1  0  0  0
 10 13  1  0  0  0
 10 12  1  0  0  0
 13 14  1  0  0  0
 13 19  2  0  0  0
 14 15  2  0  0  0
 15 16  1  0  0  0
 16 17  1  0  0  0
 16 18  2  0  0  0
 18 19  1  0  0  0
  5  6  1  0  0  0
 28 29  2  0  0  0
 29 30  1  0  0  0
 30 33  1  0  0  0
 33 34  1  0  0  0
M  END
> <minimizedAffinity>
-11.52232

$$$$
