CHEMBL3589739


 32 35  0  0  0  0  0  0  0  0999 V2000
  -28.4363   -2.3798   -8.6097 C   0  0  0  0  0  0  0  0  0  0  0  0
  -27.9505   -1.3277   -7.8475 C   0  0  0  0  0  0  0  0  0  0  0  0
  -27.9800   -1.4165   -6.4811 C   0  0  0  0  0  0  0  0  0  0  0  0
  -28.7200   -2.4055   -5.8262 C   0  0  0  0  0  0  0  0  0  0  0  0
  -29.2263   -3.4594   -6.5837 C   0  0  0  0  0  0  0  0  0  0  0  0
  -29.0786   -3.4534   -7.9860 C   0  0  0  0  0  0  0  0  0  0  0  0
  -28.8944   -2.2818   -4.4283 N   0  0  0  0  0  0  0  0  0  0  0  0
  -28.6787   -3.4005   -3.7826 C   0  0  0  0  0  0  0  0  0  0  0  0
  -27.5699   -4.4487   -4.0904 C   0  0  0  0  0  0  0  0  0  0  0  0
  -26.4280   -4.2109   -4.4170 O   0  0  0  0  0  0  0  0  0  0  0  0
  -28.1839   -5.6806   -3.9770 N   0  0  0  0  0  0  0  0  0  0  0  0
  -29.5442   -5.5141   -3.7347 C   0  0  0  0  0  0  0  0  0  0  0  0
  -30.5509   -6.3627   -4.1608 C   0  0  0  0  0  0  0  0  0  0  0  0
  -31.8656   -5.8771   -4.1117 C   0  0  0  0  0  0  0  0  0  0  0  0
  -32.1555   -4.6088   -3.5688 C   0  0  0  0  0  0  0  0  0  0  0  0
  -31.1282   -3.7526   -3.1689 C   0  0  0  0  0  0  0  0  0  0  0  0
  -29.8313   -4.2093   -3.3169 C   0  0  0  0  0  0  0  0  0  0  0  0
  -27.7165   -6.5462   -4.2025 H   0  0  0  0  0  0  0  0  0  0  0  0
  -26.7767   -1.6209  -11.7111 N   0  0  0  0  0  0  0  0  0  0  0  0
  -26.9252   -1.7736  -10.3548 C   0  0  0  0  0  0  0  0  0  0  0  0
  -26.0885   -1.4180   -9.5288 O   0  0  0  0  0  0  0  0  0  0  0  0
  -28.1307   -2.3686   -9.9886 N   0  0  0  0  0  0  0  0  0  0  0  0
  -27.5852   -1.8247  -12.2818 H   0  0  0  0  0  0  0  0  0  0  0  0
  -28.4259   -3.1592  -10.5402 H   0  0  0  0  0  0  0  0  0  0  0  0
  -23.3303   -0.1358  -13.6352 C   0  0  0  0  0  0  0  0  0  0  0  0
  -23.7024    0.4074  -12.4178 C   0  0  0  0  0  0  0  0  0  0  0  0
  -24.8370   -0.0714  -11.7684 C   0  0  0  0  0  0  0  0  0  0  0  0
  -25.6295   -1.0832  -12.3353 C   0  0  0  0  0  0  0  0  0  0  0  0
  -25.2660   -1.6009  -13.5801 C   0  0  0  0  0  0  0  0  0  0  0  0
  -24.1199   -1.1371  -14.2256 C   0  0  0  0  0  0  0  0  0  0  0  0
  -21.1691    0.6906  -14.8011 N   0  0  0  0  0  0  0  0  0  0  0  0
  -22.1387    0.3182  -14.2843 C   0  0  0  0  0  0  0  0  0  0  0  0
 31 32  3  0  0  0
 32 25  1  0  0  0
 25 26  1  0  0  0
 25 30  2  0  0  0
 26 27  2  0  0  0
 27 28  1  0  0  0
 28 19  1  0  0  0
 28 29  2  0  0  0
 19 20  1  0  0  0
 19 23  1  0  0  0
 20 21  2  0  0  0
 20 22  1  0  0  0
 22  1  1  0  0  0
 22 24  1  0  0  0
  1  2  1  0  0  0
  1  6  2  0  0  0
  2  3  2  0  0  0
  3  4  1  0  0  0
  4  7  1  0  0  0
  4  5  2  0  0  0
  7  8  2  0  0  0
  8  9  1  0  0  0
  8 17  1  0  0  0
  9 10  2  0  0  0
  9 11  1  0  0  0
 11 12  1  0  0  0
 11 18  1  0  0  0
 12 13  1  0  0  0
 12 17  2  0  0  0
 13 14  2  0  0  0
 14 15  1  0  0  0
 15 16  2  0  0  0
 16 17  1  0  0  0
  5  6  1  0  0  0
 29 30  1  0  0  0
M  END
> <minimizedAffinity>
-10.90924

$$$$
