CHEMBL508395


 51 57  0  0  0  0  0  0  0  0999 V2000
  -27.5689   -1.4982   -8.7900 C   0  0  0  0  0  0  0  0  0  0  0  0
  -27.4549   -0.4856   -7.8531 C   0  0  0  0  0  0  0  0  0  0  0  0
  -28.2276   -0.7296   -6.6824 C   0  0  0  0  0  0  0  0  0  0  0  0
  -28.3037    0.0925   -5.5940 N   0  0  0  0  0  0  0  0  0  0  0  0
  -29.1091   -0.3381   -4.6025 C   0  0  0  0  0  0  0  0  0  0  0  0
  -29.8449   -1.5079   -4.6111 C   0  0  0  0  0  0  0  0  0  0  0  0
  -29.7288   -2.3532   -5.7059 C   0  0  0  0  0  0  0  0  0  0  0  0
  -28.9188   -1.9310   -6.7590 C   0  0  0  0  0  0  0  0  0  0  0  0
  -28.6041   -2.7408   -8.2271 S   0  0  0  0  0  0  0  0  0  0  0  0
  -25.6725   -1.8435  -12.6085 C   0  0  0  0  0  0  0  0  0  0  0  0
  -27.0607   -1.9375  -12.4966 C   0  0  0  0  0  0  0  0  0  0  0  0
  -27.6853   -1.8380  -11.2521 C   0  0  0  0  0  0  0  0  0  0  0  0
  -26.9210   -1.6562  -10.0920 C   0  0  0  0  0  0  0  0  0  0  0  0
  -25.5232   -1.5812  -10.2147 C   0  0  0  0  0  0  0  0  0  0  0  0
  -24.9060   -1.6477  -11.4545 C   0  0  0  0  0  0  0  0  0  0  0  0
  -24.9931   -1.9937  -13.9426 C   0  0  0  0  0  0  0  0  0  0  0  0
  -24.7079   -0.7250  -14.6433 N   0  0  0  0  0  0  0  0  0  0  0  0
  -25.1006   -0.7977  -16.0532 C   0  0  0  0  0  0  0  0  0  0  0  0
  -23.2705   -0.4185  -14.4691 C   0  0  0  0  0  0  0  0  0  0  0  0
  -22.9291    1.0569  -14.7644 C   0  0  0  0  0  0  0  0  0  0  0  0
  -18.5804    2.7401  -15.9454 C   0  0  0  0  0  0  0  0  0  0  0  0
  -19.5580    2.6076  -14.8739 N   0  0  0  0  0  0  0  0  0  0  0  0
  -20.8140    3.3017  -15.2096 C   0  0  0  0  0  0  0  0  0  0  0  0
  -21.8432    3.1608  -14.0673 C   0  0  0  0  0  0  0  0  0  0  0  0
  -22.1745    1.7651  -13.7148 N   0  0  0  0  0  0  0  0  0  0  0  0
  -20.9052    1.0379  -13.4566 C   0  0  0  0  0  0  0  0  0  0  0  0
  -19.8321    1.1918  -14.5659 C   0  0  0  0  0  0  0  0  0  0  0  0
  -30.4214   -3.5289   -5.8484 O   0  0  0  0  0  0  0  0  0  0  0  0
  -29.7535   -4.7181   -5.7335 C   0  0  0  0  0  0  0  0  0  0  0  0
  -29.6473   -5.6688   -6.7479 C   0  0  0  0  0  0  0  0  0  0  0  0
  -28.9131   -6.8288   -6.5328 C   0  0  0  0  0  0  0  0  0  0  0  0
  -28.3416   -7.0823   -5.2860 C   0  0  0  0  0  0  0  0  0  0  0  0
  -28.4777   -6.1478   -4.2579 C   0  0  0  0  0  0  0  0  0  0  0  0
  -29.1841   -4.9772   -4.4890 C   0  0  0  0  0  0  0  0  0  0  0  0
  -29.3118   -4.0891   -3.4920 F   0  0  0  0  0  0  0  0  0  0  0  0
  -27.6456   -8.2592   -4.9961 N   0  0  0  0  0  0  0  0  0  0  0  0
  -28.0376   -9.2894   -4.1777 C   0  0  0  0  0  0  0  0  0  0  0  0
  -29.0925   -9.3551   -3.5453 O   0  0  0  0  0  0  0  0  0  0  0  0
  -27.1315  -10.3272   -4.1292 N   0  0  0  0  0  0  0  0  0  0  0  0
  -27.4509  -11.5628   -3.4652 C   0  0  0  0  0  0  0  0  0  0  0  0
  -26.3138  -12.4658   -3.8805 C   0  0  0  0  0  0  0  0  0  0  0  0
  -25.2205  -11.5379   -4.0591 N   0  0  0  0  0  0  0  0  0  0  0  0
  -25.7337  -10.2569   -4.3322 C   0  0  0  0  0  0  0  0  0  0  0  0
  -25.1299   -9.2568   -4.7015 O   0  0  0  0  0  0  0  0  0  0  0  0
  -26.7053   -8.3465   -5.3815 H   0  0  0  0  0  0  0  0  0  0  0  0
  -23.8680  -11.9082   -3.9727 C   0  0  0  0  0  0  0  0  0  0  0  0
  -23.0953  -12.0934   -5.1246 C   0  0  0  0  0  0  0  0  0  0  0  0
  -21.7260  -12.3540   -5.0275 C   0  0  0  0  0  0  0  0  0  0  0  0
  -21.1257  -12.4660   -3.7784 C   0  0  0  0  0  0  0  0  0  0  0  0
  -21.8872  -12.3194   -2.6232 C   0  0  0  0  0  0  0  0  0  0  0  0
  -23.2491  -12.0341   -2.7194 C   0  0  0  0  0  0  0  0  0  0  0  0
 21 22  1  0  0  0
 22 23  1  0  0  0
 22 27  1  0  0  0
 23 24  1  0  0  0
 24 25  1  0  0  0
 25 20  1  0  0  0
 25 26  1  0  0  0
 20 19  1  0  0  0
 19 17  1  0  0  0
 17 18  1  0  0  0
 17 16  1  0  0  0
 16 10  1  0  0  0
 10 11  1  0  0  0
 10 15  2  0  0  0
 11 12  2  0  0  0
 12 13  1  0  0  0
 13  1  1  0  0  0
 13 14  2  0  0  0
  1  2  2  0  0  0
  1  9  1  0  0  0
  2  3  1  0  0  0
  3  4  1  0  0  0
  3  8  2  0  0  0
  4  5  2  0  0  0
  5  6  1  0  0  0
  6  7  2  0  0  0
  7 28  1  0  0  0
  7  8  1  0  0  0
 28 29  1  0  0  0
 29 30  1  0  0  0
 29 34  2  0  0  0
 30 31  2  0  0  0
 31 32  1  0  0  0
 32 36  1  0  0  0
 32 33  2  0  0  0
 36 37  1  0  0  0
 36 45  1  0  0  0
 37 38  2  0  0  0
 37 39  1  0  0  0
 39 40  1  0  0  0
 39 43  1  0  0  0
 40 41  1  0  0  0
 41 42  1  0  0  0
 42 46  1  0  0  0
 42 43  1  0  0  0
 46 47  1  0  0  0
 46 51  2  0  0  0
 47 48  2  0  0  0
 48 49  1  0  0  0
 49 50  2  0  0  0
 50 51  1  0  0  0
 43 44  2  0  0  0
 33 34  1  0  0  0
 34 35  1  0  0  0
  8  9  1  0  0  0
 14 15  1  0  0  0
 26 27  1  0  0  0
M  END
> <minimizedAffinity>
-9.24798

$$$$
