CHEMBL3759186


 34 36  0  0  0  0  0  0  0  0999 V2000
  -28.2151   -1.0897   -6.7756 C   0  0  0  0  0  0  0  0  0  0  0  0
  -29.1040   -1.5631   -5.8034 C   0  0  0  0  0  0  0  0  0  0  0  0
  -29.5119   -2.8821   -5.7598 C   0  0  0  0  0  0  0  0  0  0  0  0
  -30.2695   -3.2549   -4.7288 N   0  0  0  0  0  0  0  0  0  0  0  0
  -30.6008   -4.5438   -4.6743 C   0  0  0  0  0  0  0  0  0  0  0  0
  -30.2508   -5.4771   -5.5590 N   0  0  0  0  0  0  0  0  0  0  0  0
  -29.5061   -5.0915   -6.6127 C   0  0  0  0  0  0  0  0  0  0  0  0
  -29.0934   -3.7563   -6.7697 C   0  0  0  0  0  0  0  0  0  0  0  0
  -28.2970   -3.2561   -7.8310 C   0  0  0  0  0  0  0  0  0  0  0  0
  -27.8262   -1.9415   -7.8189 C   0  0  0  0  0  0  0  0  0  0  0  0
  -28.7459    1.2069   -6.5202 C   0  0  0  0  0  0  0  0  0  0  0  0
  -27.7577    0.1999   -6.7433 O   0  0  0  0  0  0  0  0  0  0  0  0
  -29.1132   -6.0604   -7.5756 N   0  0  0  0  0  0  0  0  0  0  0  0
  -28.0998   -6.0917   -7.6249 H   0  0  0  0  0  0  0  0  0  0  0  0
  -29.6758   -7.3421   -7.7763 C   0  0  0  0  0  0  0  0  0  0  0  0
  -31.0080   -7.6382   -7.4659 C   0  0  0  0  0  0  0  0  0  0  0  0
  -31.5334   -8.9167   -7.6639 C   0  0  0  0  0  0  0  0  0  0  0  0
  -30.7393   -9.9029   -8.2342 C   0  0  0  0  0  0  0  0  0  0  0  0
  -31.4342  -11.6437   -8.4690 Br  0  0  0  0  0  0  0  0  0  0  0  0
  -29.4343   -9.6145   -8.6310 C   0  0  0  0  0  0  0  0  0  0  0  0
  -28.9120   -8.3349   -8.4100 C   0  0  0  0  0  0  0  0  0  0  0  0
  -27.0053   -1.6316   -8.8780 O   0  0  0  0  0  0  0  0  0  0  0  0
  -27.6608   -1.6619  -10.1415 C   0  0  0  0  0  0  0  0  0  0  0  0
  -26.6953   -2.0849  -11.2497 C   0  0  0  0  0  0  0  0  0  0  0  0
  -26.0679   -0.8220  -11.8389 C   0  0  0  0  0  0  0  0  0  0  0  0
  -25.0557   -1.0932  -12.9450 C   0  0  0  0  0  0  0  0  0  0  0  0
  -23.7165   -0.4400  -12.5885 C   0  0  0  0  0  0  0  0  0  0  0  0
  -22.7034   -0.5835  -13.7173 C   0  0  0  0  0  0  0  0  0  0  0  0
  -22.1258    0.7494  -14.1445 C   0  0  0  0  0  0  0  0  0  0  0  0
  -21.0873    0.8926  -14.7854 O   0  0  0  0  0  0  0  0  0  0  0  0
  -22.8859    1.8193  -13.7348 N   0  0  0  0  0  0  0  0  0  0  0  0
  -22.4610    3.0888  -14.1886 O   0  0  0  0  0  0  0  0  0  0  0  0
  -23.8595    1.7356  -13.4640 H   0  0  0  0  0  0  0  0  0  0  0  0
  -21.6366    2.8725  -14.6777 H   0  0  0  0  0  0  0  0  0  0  0  0
 11 12  1  0  0  0
 12  1  1  0  0  0
  1  2  1  0  0  0
  1 10  2  0  0  0
  2  3  2  0  0  0
  3  4  1  0  0  0
  3  8  1  0  0  0
  4  5  2  0  0  0
  5  6  1  0  0  0
  6  7  2  0  0  0
  7 13  1  0  0  0
  7  8  1  0  0  0
 13 15  1  0  0  0
 13 14  1  0  0  0
 15 16  1  0  0  0
 15 21  2  0  0  0
 16 17  2  0  0  0
 17 18  1  0  0  0
 18 19  1  0  0  0
 18 20  2  0  0  0
 20 21  1  0  0  0
  8  9  2  0  0  0
  9 10  1  0  0  0
 10 22  1  0  0  0
 22 23  1  0  0  0
 23 24  1  0  0  0
 24 25  1  0  0  0
 25 26  1  0  0  0
 26 27  1  0  0  0
 27 28  1  0  0  0
 28 29  1  0  0  0
 29 30  2  0  0  0
 29 31  1  0  0  0
 31 32  1  0  0  0
 31 33  1  0  0  0
 32 34  1  0  0  0
M  END
> <minimizedAffinity>
-9.07367

$$$$
