CHEMBL2023490


 33 36  0  0  0  0  0  0  0  0999 V2000
  -29.8441   -7.8438   -7.0552 C   0  0  0  0  0  0  0  0  0  0  0  0
  -28.9791   -8.2997   -6.0588 C   0  0  0  0  0  0  0  0  0  0  0  0
  -27.8774   -9.0854   -6.4098 C   0  0  0  0  0  0  0  0  0  0  0  0
  -27.6879   -9.4935   -7.7378 C   0  0  0  0  0  0  0  0  0  0  0  0
  -28.6590   -9.1705   -8.6946 C   0  0  0  0  0  0  0  0  0  0  0  0
  -29.7331   -8.3490   -8.3518 C   0  0  0  0  0  0  0  0  0  0  0  0
  -30.7990   -6.8712   -6.8783 O   0  0  0  0  0  0  0  0  0  0  0  0
  -28.1266   -2.4430   -6.0306 C   0  0  0  0  0  0  0  0  0  0  0  0
  -28.9613   -2.7449   -4.9428 C   0  0  0  0  0  0  0  0  0  0  0  0
  -29.8086   -3.8494   -4.9257 C   0  0  0  0  0  0  0  0  0  0  0  0
  -30.4633   -4.1082   -3.7849 N   0  0  0  0  0  0  0  0  0  0  0  0
  -31.2156   -5.2256   -3.7182 C   0  0  0  0  0  0  0  0  0  0  0  0
  -31.3196   -6.1324   -4.7534 C   0  0  0  0  0  0  0  0  0  0  0  0
  -30.6443   -5.8638   -5.9414 C   0  0  0  0  0  0  0  0  0  0  0  0
  -29.9181   -4.6501   -6.0773 C   0  0  0  0  0  0  0  0  0  0  0  0
  -29.2449   -4.1930   -7.2378 C   0  0  0  0  0  0  0  0  0  0  0  0
  -28.2954   -3.1613   -7.2168 C   0  0  0  0  0  0  0  0  0  0  0  0
  -27.5532   -0.2648   -5.2799 C   0  0  0  0  0  0  0  0  0  0  0  0
  -27.1762   -1.4639   -5.9630 O   0  0  0  0  0  0  0  0  0  0  0  0
  -27.6286   -3.0777   -8.4018 O   0  0  0  0  0  0  0  0  0  0  0  0
  -27.8768   -2.0117   -9.2994 C   0  0  0  0  0  0  0  0  0  0  0  0
  -26.3974  -10.1573   -8.1519 C   0  0  0  0  0  0  0  0  0  0  0  0
  -25.6086  -10.8071   -7.0349 C   0  0  0  0  0  0  0  0  0  0  0  0
  -25.9339  -11.9178   -6.6189 O   0  0  0  0  0  0  0  0  0  0  0  0
  -24.5114  -10.0703   -6.6203 N   0  0  0  0  0  0  0  0  0  0  0  0
  -24.4257   -9.1098   -6.9290 H   0  0  0  0  0  0  0  0  0  0  0  0
  -23.5597  -10.5312   -5.7263 C   0  0  0  0  0  0  0  0  0  0  0  0
  -23.6263  -10.5056   -4.3550 C   0  0  0  0  0  0  0  0  0  0  0  0
  -22.4827  -11.0831   -3.9012 N   0  0  0  0  0  0  0  0  0  0  0  0
  -22.1194  -11.2953   -2.5221 C   0  0  0  0  0  0  0  0  0  0  0  0
  -21.6606  -11.4914   -4.8834 N   0  0  0  0  0  0  0  0  0  0  0  0
  -22.3118  -11.1558   -6.0072 C   0  0  0  0  0  0  0  0  0  0  0  0
  -21.6937  -11.4401   -7.3253 C   0  0  0  0  0  0  0  0  0  0  0  0
 18 19  1  0  0  0
 19  8  1  0  0  0
  8  9  1  0  0  0
  8 17  2  0  0  0
  9 10  2  0  0  0
 10 11  1  0  0  0
 10 15  1  0  0  0
 11 12  2  0  0  0
 12 13  1  0  0  0
 13 14  2  0  0  0
 14  7  1  0  0  0
 14 15  1  0  0  0
  7  1  1  0  0  0
  1  2  1  0  0  0
  1  6  2  0  0  0
  2  3  2  0  0  0
  3  4  1  0  0  0
  4 22  1  0  0  0
  4  5  2  0  0  0
 22 23  1  0  0  0
 23 24  2  0  0  0
 23 25  1  0  0  0
 25 27  1  0  0  0
 25 26  1  0  0  0
 27 28  2  0  0  0
 27 32  1  0  0  0
 28 29  1  0  0  0
 29 30  1  0  0  0
 29 31  1  0  0  0
 31 32  2  0  0  0
 32 33  1  0  0  0
  5  6  1  0  0  0
 15 16  2  0  0  0
 16 17  1  0  0  0
 17 20  1  0  0  0
 20 21  1  0  0  0
M  END
> <minimizedAffinity>
-8.43537

$$$$
