CHEMBL3633763


 31 33  0  0  0  0  0  0  0  0999 V2000
  -25.0782   12.2538  -13.4114 C   0  0  0  0  0  0  0  0  0  0  0  0
  -25.2988   12.3588  -12.0311 C   0  0  0  0  0  0  0  0  0  0  0  0
  -26.5650   12.3934  -11.4804 C   0  0  0  0  0  0  0  0  0  0  0  0
  -26.6586   12.5672  -10.1601 N   0  0  0  0  0  0  0  0  0  0  0  0
  -27.8902   12.6541   -9.6568 C   0  0  0  0  0  0  0  0  0  0  0  0
  -29.0217   12.5577  -10.3510 N   0  0  0  0  0  0  0  0  0  0  0  0
  -28.9181   12.3579  -11.6808 C   0  0  0  0  0  0  0  0  0  0  0  0
  -27.6720   12.2741  -12.3261 C   0  0  0  0  0  0  0  0  0  0  0  0
  -27.4627   12.1091  -13.7215 C   0  0  0  0  0  0  0  0  0  0  0  0
  -26.1737   12.0656  -14.2641 C   0  0  0  0  0  0  0  0  0  0  0  0
  -22.8867   11.3658  -13.4986 C   0  0  0  0  0  0  0  0  0  0  0  0
  -23.8189   12.3527  -13.9446 O   0  0  0  0  0  0  0  0  0  0  0  0
  -30.1185   12.2362  -12.4345 N   0  0  0  0  0  0  0  0  0  0  0  0
  -29.9255   11.7339  -13.2941 H   0  0  0  0  0  0  0  0  0  0  0  0
  -31.3595   11.8742  -11.8593 C   0  0  0  0  0  0  0  0  0  0  0  0
  -31.8854   12.6133  -10.7868 C   0  0  0  0  0  0  0  0  0  0  0  0
  -33.0571   12.2137  -10.1432 C   0  0  0  0  0  0  0  0  0  0  0  0
  -33.7244   11.0711  -10.5739 C   0  0  0  0  0  0  0  0  0  0  0  0
  -33.2269   10.3516  -11.6595 C   0  0  0  0  0  0  0  0  0  0  0  0
  -34.1307    8.7916  -12.2344 Br  0  0  0  0  0  0  0  0  0  0  0  0
  -32.0569   10.7502  -12.3098 C   0  0  0  0  0  0  0  0  0  0  0  0
  -26.1382   11.9245  -15.6303 O   0  0  0  0  0  0  0  0  0  0  0  0
  -25.2032   10.9615  -16.1227 C   0  0  0  0  0  0  0  0  0  0  0  0
  -24.6163   11.4467  -17.4522 C   0  0  0  0  0  0  0  0  0  0  0  0
  -23.4258   12.3687  -17.1955 C   0  0  0  0  0  0  0  0  0  0  0  0
  -22.0795   11.6858  -17.3175 C   0  0  0  0  0  0  0  0  0  0  0  0
  -21.6697   10.8010  -16.5726 O   0  0  0  0  0  0  0  0  0  0  0  0
  -21.3404   12.1529  -18.3848 N   0  0  0  0  0  0  0  0  0  0  0  0
  -20.0369   11.6266  -18.5153 O   0  0  0  0  0  0  0  0  0  0  0  0
  -21.5175   13.0459  -18.8319 H   0  0  0  0  0  0  0  0  0  0  0  0
  -19.9997   10.9711  -17.7859 H   0  0  0  0  0  0  0  0  0  0  0  0
 11 12  1  0  0  0
 12  1  1  0  0  0
  1  2  1  0  0  0
  1 10  2  0  0  0
  2  3  2  0  0  0
  3  4  1  0  0  0
  3  8  1  0  0  0
  4  5  2  0  0  0
  5  6  1  0  0  0
  6  7  2  0  0  0
  7 13  1  0  0  0
  7  8  1  0  0  0
 13 15  1  0  0  0
 13 14  1  0  0  0
 15 16  1  0  0  0
 15 21  2  0  0  0
 16 17  2  0  0  0
 17 18  1  0  0  0
 18 19  2  0  0  0
 19 20  1  0  0  0
 19 21  1  0  0  0
  8  9  2  0  0  0
  9 10  1  0  0  0
 10 22  1  0  0  0
 22 23  1  0  0  0
 23 24  1  0  0  0
 24 25  1  0  0  0
 25 26  1  0  0  0
 26 27  2  0  0  0
 26 28  1  0  0  0
 28 29  1  0  0  0
 28 30  1  0  0  0
 29 31  1  0  0  0
M  END
> <minimizedAffinity>
-3.65010

$$$$
