CHEMBL4467628


 34 37  0  0  0  0  0  0  0  0999 V2000
  -21.9986   11.7854  -17.4527 N   0  0  0  0  0  0  0  0  0  0  0  0
  -22.8371   10.6811  -17.3158 C   0  0  0  0  0  0  0  0  0  0  0  0
  -22.5362    9.5310  -17.6270 O   0  0  0  0  0  0  0  0  0  0  0  0
  -22.2700   12.7134  -17.1241 H   0  0  0  0  0  0  0  0  0  0  0  0
  -22.7757   12.6142  -20.0225 O   0  0  0  0  0  0  0  0  0  0  0  0
  -21.6068   12.4002  -20.2655 C   0  0  0  0  0  0  0  0  0  0  0  0
  -20.9162   12.5413  -21.4516 N   0  0  0  0  0  0  0  0  0  0  0  0
  -19.5837   12.1724  -21.2933 C   0  0  0  0  0  0  0  0  0  0  0  0
  -18.5931   12.1739  -22.2569 C   0  0  0  0  0  0  0  0  0  0  0  0
  -17.3170   11.7527  -21.8648 C   0  0  0  0  0  0  0  0  0  0  0  0
  -17.0646   11.3453  -20.5375 C   0  0  0  0  0  0  0  0  0  0  0  0
  -15.4791   10.8326  -20.1041 Cl  0  0  0  0  0  0  0  0  0  0  0  0
  -18.0741   11.3488  -19.5734 C   0  0  0  0  0  0  0  0  0  0  0  0
  -19.3230   11.7699  -19.9835 C   0  0  0  0  0  0  0  0  0  0  0  0
  -20.5813   11.8932  -19.2473 C   0  0  0  0  0  0  0  0  0  0  0  0
  -20.7470   11.6179  -17.9929 N   0  0  0  0  0  0  0  0  0  0  0  0
  -21.3418   12.8655  -22.3092 H   0  0  0  0  0  0  0  0  0  0  0  0
  -24.1958   10.9279  -16.7467 C   0  0  0  0  0  0  0  0  0  0  0  0
  -24.5086   12.1238  -16.1082 C   0  0  0  0  0  0  0  0  0  0  0  0
  -25.8064   12.3479  -15.6314 C   0  0  0  0  0  0  0  0  0  0  0  0
  -26.8224   11.3953  -15.7691 C   0  0  0  0  0  0  0  0  0  0  0  0
  -26.5128   10.2024  -16.4350 C   0  0  0  0  0  0  0  0  0  0  0  0
  -25.2111    9.9734  -16.9209 C   0  0  0  0  0  0  0  0  0  0  0  0
  -28.1434   11.5903  -15.2780 N   0  0  0  0  0  0  0  0  0  0  0  0
  -28.5336   11.4399  -13.9537 C   0  0  0  0  0  0  0  0  0  0  0  0
  -27.7976   11.1245  -13.0180 O   0  0  0  0  0  0  0  0  0  0  0  0
  -28.8356   11.8829  -15.9558 H   0  0  0  0  0  0  0  0  0  0  0  0
  -29.9637   11.6562  -13.5989 C   0  0  0  0  0  0  0  0  0  0  0  0
  -30.3818   12.3304  -12.4471 C   0  0  0  0  0  0  0  0  0  0  0  0
  -31.7413   12.6252  -12.2711 C   0  0  0  0  0  0  0  0  0  0  0  0
  -32.6770   12.2483  -13.2382 C   0  0  0  0  0  0  0  0  0  0  0  0
  -34.3353   12.6560  -13.0347 Cl  0  0  0  0  0  0  0  0  0  0  0  0
  -32.2732   11.5672  -14.3806 C   0  0  0  0  0  0  0  0  0  0  0  0
  -30.9218   11.2704  -14.5563 C   0  0  0  0  0  0  0  0  0  0  0  0
  5  6  2  0  0  0
  6  7  1  0  0  0
  6 15  1  0  0  0
  7  8  1  0  0  0
  7 17  1  0  0  0
  8  9  1  0  0  0
  8 14  2  0  0  0
  9 10  2  0  0  0
 10 11  1  0  0  0
 11 12  1  0  0  0
 11 13  2  0  0  0
 13 14  1  0  0  0
 14 15  1  0  0  0
 15 16  2  0  0  0
 16  1  1  0  0  0
  1  2  1  0  0  0
  1  4  1  0  0  0
  2  3  2  0  0  0
  2 18  1  0  0  0
 18 19  1  0  0  0
 18 23  2  0  0  0
 19 20  2  0  0  0
 20 21  1  0  0  0
 21 24  1  0  0  0
 21 22  2  0  0  0
 24 25  1  0  0  0
 24 27  1  0  0  0
 25 26  2  0  0  0
 25 28  1  0  0  0
 28 29  1  0  0  0
 28 34  2  0  0  0
 29 30  2  0  0  0
 30 31  1  0  0  0
 31 32  1  0  0  0
 31 33  2  0  0  0
 33 34  1  0  0  0
 22 23  1  0  0  0
M  END
> <minimizedAffinity>
-4.61602

$$$$
