CHEMBL3933094


 40 44  0  0  0  0  0  0  0  0999 V2000
  -27.1987   -1.4862  -10.0027 C   0  0  0  0  0  0  0  0  0  0  0  0
  -28.0517   -1.3539  -11.1015 C   0  0  0  0  0  0  0  0  0  0  0  0
  -27.5447   -1.3798  -12.3957 C   0  0  0  0  0  0  0  0  0  0  0  0
  -26.1794   -1.5339  -12.5918 C   0  0  0  0  0  0  0  0  0  0  0  0
  -25.3051   -1.5335  -11.4924 C   0  0  0  0  0  0  0  0  0  0  0  0
  -25.8170   -1.5202  -10.1839 C   0  0  0  0  0  0  0  0  0  0  0  0
  -27.9265   -2.8384   -8.1107 C   0  0  0  0  0  0  0  0  0  0  0  0
  -27.6023   -3.9136   -8.6261 O   0  0  0  0  0  0  0  0  0  0  0  0
  -27.7215   -1.5964   -8.7008 N   0  0  0  0  0  0  0  0  0  0  0  0
  -27.6139   -0.8143   -8.0661 H   0  0  0  0  0  0  0  0  0  0  0  0
  -28.6535   -2.8274   -6.7503 C   0  0  0  0  0  0  0  0  0  0  0  0
  -28.7084   -1.4441   -6.1145 C   0  0  0  0  0  0  0  0  0  0  0  0
  -27.5732   -0.9295   -5.4659 C   0  0  0  0  0  0  0  0  0  0  0  0
  -27.6163    0.3181   -4.8399 C   0  0  0  0  0  0  0  0  0  0  0  0
  -28.7867    1.0735   -4.8643 C   0  0  0  0  0  0  0  0  0  0  0  0
  -29.9131    0.5880   -5.5229 C   0  0  0  0  0  0  0  0  0  0  0  0
  -29.8744   -0.6588   -6.1464 C   0  0  0  0  0  0  0  0  0  0  0  0
  -30.2135   -4.4955   -5.8808 C   0  0  0  0  0  0  0  0  0  0  0  0
  -30.0057   -3.4355   -6.8629 N   0  0  0  0  0  0  0  0  0  0  0  0
  -30.6774   -2.6895   -6.6764 H   0  0  0  0  0  0  0  0  0  0  0  0
  -23.8319   -1.5538  -11.6836 C   0  0  0  0  0  0  0  0  0  0  0  0
  -23.1635   -2.3616  -11.0293 O   0  0  0  0  0  0  0  0  0  0  0  0
  -23.1619   -0.6100  -12.6159 C   0  0  0  0  0  0  0  0  0  0  0  0
  -22.7368   -0.9719  -13.9030 C   0  0  0  0  0  0  0  0  0  0  0  0
  -22.0080   -0.0852  -14.7274 C   0  0  0  0  0  0  0  0  0  0  0  0
  -21.9076    1.2505  -14.3120 C   0  0  0  0  0  0  0  0  0  0  0  0
  -21.3552    2.5035  -14.7485 C   0  0  0  0  0  0  0  0  0  0  0  0
  -22.3258    3.4153  -14.5102 N   0  0  0  0  0  0  0  0  0  0  0  0
  -22.8028    2.9635  -13.3273 N   0  0  0  0  0  0  0  0  0  0  0  0
  -22.6063    1.6230  -13.1647 C   0  0  0  0  0  0  0  0  0  0  0  0
  -23.0664    0.7314  -12.2023 C   0  0  0  0  0  0  0  0  0  0  0  0
  -23.3735    3.5887  -12.7632 H   0  0  0  0  0  0  0  0  0  0  0  0
  -20.0289    3.0407  -14.4803 C   0  0  0  0  0  0  0  0  0  0  0  0
  -19.2089    3.4914  -15.4484 C   0  0  0  0  0  0  0  0  0  0  0  0
  -17.7834    3.0786  -15.5408 C   0  0  0  0  0  0  0  0  0  0  0  0
  -17.4197    1.7251  -15.4213 C   0  0  0  0  0  0  0  0  0  0  0  0
  -16.1287    1.2899  -15.7530 C   0  0  0  0  0  0  0  0  0  0  0  0
  -15.1882    2.2115  -16.2107 C   0  0  0  0  0  0  0  0  0  0  0  0
  -15.5326    3.5519  -16.3292 C   0  0  0  0  0  0  0  0  0  0  0  0
  -16.8258    3.9837  -15.9968 C   0  0  0  0  0  0  0  0  0  0  0  0
 18 19  1  0  0  0
 19 11  1  0  0  0
 19 20  1  0  0  0
 11  7  1  0  0  0
 11 12  1  0  0  0
  7  8  2  0  0  0
  7  9  1  0  0  0
  9  1  1  0  0  0
  9 10  1  0  0  0
  1  2  1  0  0  0
  1  6  2  0  0  0
  2  3  2  0  0  0
  3  4  1  0  0  0
  4  5  2  0  0  0
  5 21  1  0  0  0
  5  6  1  0  0  0
 21 22  2  0  0  0
 21 23  1  0  0  0
 23 24  1  0  0  0
 23 31  2  0  0  0
 24 25  2  0  0  0
 25 26  1  0  0  0
 26 27  1  0  0  0
 26 30  2  0  0  0
 27 33  1  0  0  0
 27 28  2  0  0  0
 33 34  2  0  0  0
 34 35  1  0  0  0
 35 36  1  0  0  0
 35 40  2  0  0  0
 36 37  2  0  0  0
 37 38  1  0  0  0
 38 39  2  0  0  0
 39 40  1  0  0  0
 28 29  1  0  0  0
 29 30  1  0  0  0
 29 32  1  0  0  0
 30 31  1  0  0  0
 12 13  1  0  0  0
 12 17  2  0  0  0
 13 14  2  0  0  0
 14 15  1  0  0  0
 15 16  2  0  0  0
 16 17  1  0  0  0
M  END
> <minimizedAffinity>
-10.63157

$$$$
