CHEMBL3946674


 36 39  0  0  0  0  0  0  0  0999 V2000
  -27.6252   -2.3936   -8.6803 N   0  0  0  0  0  0  0  0  0  0  0  0
  -27.0023   -1.7823   -9.8675 C   0  0  0  0  0  0  0  0  0  0  0  0
  -27.6676   -2.1099  -11.0329 C   0  0  0  0  0  0  0  0  0  0  0  0
  -27.1333   -1.8936  -12.2472 C   0  0  0  0  0  0  0  0  0  0  0  0
  -25.9195   -1.3014  -12.3949 C   0  0  0  0  0  0  0  0  0  0  0  0
  -25.4612   -1.3226  -13.6289 N   0  0  0  0  0  0  0  0  0  0  0  0
  -24.3186   -0.7838  -13.9845 C   0  0  0  0  0  0  0  0  0  0  0  0
  -23.5396   -0.0467  -13.0874 C   0  0  0  0  0  0  0  0  0  0  0  0
  -23.9608   -0.0870  -11.7262 N   0  0  0  0  0  0  0  0  0  0  0  0
  -25.1563   -0.7580  -11.3382 C   0  0  0  0  0  0  0  0  0  0  0  0
  -25.7287   -1.0161   -9.9892 C   0  0  0  0  0  0  0  0  0  0  0  0
  -22.4256    0.7421  -13.8592 C   0  0  0  0  0  0  0  0  0  0  0  0
  -22.4888    2.1664  -13.9779 C   0  0  0  0  0  0  0  0  0  0  0  0
  -21.4281    2.6604  -14.5908 N   0  0  0  0  0  0  0  0  0  0  0  0
  -20.6277    1.6739  -14.9013 N   0  0  0  0  0  0  0  0  0  0  0  0
  -19.3594    1.9885  -15.5517 C   0  0  0  0  0  0  0  0  0  0  0  0
  -21.1813    0.4755  -14.4991 C   0  0  0  0  0  0  0  0  0  0  0  0
  -28.8244    0.3459   -6.4280 C   0  0  0  0  0  0  0  0  0  0  0  0
  -28.6819   -0.2350   -5.1604 C   0  0  0  0  0  0  0  0  0  0  0  0
  -28.1645   -1.5271   -5.0236 C   0  0  0  0  0  0  0  0  0  0  0  0
  -27.8362   -2.2744   -6.1906 C   0  0  0  0  0  0  0  0  0  0  0  0
  -27.9827   -1.6938   -7.4739 C   0  0  0  0  0  0  0  0  0  0  0  0
  -28.4328   -0.3653   -7.5545 C   0  0  0  0  0  0  0  0  0  0  0  0
  -30.7278    1.8195   -6.5238 C   0  0  0  0  0  0  0  0  0  0  0  0
  -29.3766    1.5681   -6.6198 O   0  0  0  0  0  0  0  0  0  0  0  0
  -28.0132   -2.0023   -3.7573 O   0  0  0  0  0  0  0  0  0  0  0  0
  -28.6760   -3.0740   -3.1961 C   0  0  0  0  0  0  0  0  0  0  0  0
  -30.1742   -2.7853   -3.1321 C   0  0  0  0  0  0  0  0  0  0  0  0
  -30.8830   -3.8137   -3.7272 F   0  0  0  0  0  0  0  0  0  0  0  0
  -27.8917   -3.8769   -8.7381 C   0  0  0  0  0  0  0  0  0  0  0  0
  -29.1547   -4.3623   -7.9394 C   0  0  0  0  0  0  0  0  0  0  0  0
  -28.9468   -5.7098   -7.3217 N   0  0  0  0  0  0  0  0  0  0  0  0
  -27.9252   -5.9358   -7.3629 H   0  0  0  0  0  0  0  0  0  0  0  0
  -29.3583   -5.7976   -5.8896 C   0  0  0  0  0  0  0  0  0  0  0  0
  -30.5697   -6.7209   -5.6819 C   0  0  0  0  0  0  0  0  0  0  0  0
  -28.2062   -6.3275   -5.0027 C   0  0  0  0  0  0  0  0  0  0  0  0
 24 25  1  0  0  0
 25 18  1  0  0  0
 18 19  1  0  0  0
 18 23  2  0  0  0
 19 20  2  0  0  0
 20 26  1  0  0  0
 20 21  1  0  0  0
 26 27  1  0  0  0
 27 28  1  0  0  0
 28 29  1  0  0  0
 21 22  2  0  0  0
 22  1  1  0  0  0
 22 23  1  0  0  0
  1 30  1  0  0  0
  1  2  1  0  0  0
 30 31  1  0  0  0
 31 32  1  0  0  0
 32 34  1  0  0  0
 32 33  1  0  0  0
 34 35  1  0  0  0
 34 36  1  0  0  0
  2  3  1  0  0  0
  2 11  2  0  0  0
  3  4  2  0  0  0
  4  5  1  0  0  0
  5  6  1  0  0  0
  5 10  2  0  0  0
  6  7  2  0  0  0
  7  8  1  0  0  0
  8 12  1  0  0  0
  8  9  2  0  0  0
 12 13  1  0  0  0
 12 17  2  0  0  0
 13 14  2  0  0  0
 14 15  1  0  0  0
 15 16  1  0  0  0
 15 17  1  0  0  0
  9 10  1  0  0  0
 10 11  1  0  0  0
M  END
> <minimizedAffinity>
-7.87034

$$$$
