CHEMBL208911


 32 35  0  0  0  0  0  0  0  0999 V2000
  -24.6433   -0.8427  -12.9570 C   0  0  0  0  0  0  0  0  0  0  0  0
  -25.0844   -1.2725  -14.2146 C   0  0  0  0  0  0  0  0  0  0  0  0
  -26.3589   -1.8097  -14.3613 C   0  0  0  0  0  0  0  0  0  0  0  0
  -27.1959   -1.9077  -13.2544 C   0  0  0  0  0  0  0  0  0  0  0  0
  -28.4216   -2.4151  -13.4589 F   0  0  0  0  0  0  0  0  0  0  0  0
  -26.8004   -1.4600  -11.9789 C   0  0  0  0  0  0  0  0  0  0  0  0
  -25.4962   -0.9444  -11.8469 C   0  0  0  0  0  0  0  0  0  0  0  0
  -22.5800   -0.4910  -11.9005 O   0  0  0  0  0  0  0  0  0  0  0  0
  -23.2813   -0.2471  -12.8763 C   0  0  0  0  0  0  0  0  0  0  0  0
  -22.8938    0.5932  -13.8989 N   0  0  0  0  0  0  0  0  0  0  0  0
  -23.5244    0.7889  -14.6643 H   0  0  0  0  0  0  0  0  0  0  0  0
  -21.5947    1.2380  -13.8797 C   0  0  0  0  0  0  0  0  0  0  0  0
  -21.6614    2.7139  -14.2573 C   0  0  0  0  0  0  0  0  0  0  0  0
  -20.2512    3.0657  -14.7257 C   0  0  0  0  0  0  0  0  0  0  0  0
  -19.5516    1.7400  -15.0246 C   0  0  0  0  0  0  0  0  0  0  0  0
  -20.6281    0.6671  -14.9126 C   0  0  0  0  0  0  0  0  0  0  0  0
  -27.5696   -1.5849  -10.8133 N   0  0  0  0  0  0  0  0  0  0  0  0
  -28.3422   -2.2388  -10.9258 H   0  0  0  0  0  0  0  0  0  0  0  0
  -26.9036   -1.7283   -9.5213 C   0  0  0  0  0  0  0  0  0  0  0  0
  -27.7826   -2.3433   -8.4877 C   0  0  0  0  0  0  0  0  0  0  0  0
  -28.6098   -3.4324   -8.6222 C   0  0  0  0  0  0  0  0  0  0  0  0
  -29.3327   -3.7598   -7.5047 N   0  0  0  0  0  0  0  0  0  0  0  0
  -29.0928   -2.9236   -6.5178 C   0  0  0  0  0  0  0  0  0  0  0  0
  -27.8875   -1.7376   -6.8891 S   0  0  0  0  0  0  0  0  0  0  0  0
  -29.7059   -2.9127   -5.3135 N   0  0  0  0  0  0  0  0  0  0  0  0
  -30.2642   -2.1124   -5.0585 H   0  0  0  0  0  0  0  0  0  0  0  0
  -30.1891   -4.0399   -4.6422 C   0  0  0  0  0  0  0  0  0  0  0  0
  -31.4669   -4.1236   -4.0943 C   0  0  0  0  0  0  0  0  0  0  0  0
  -31.8337   -5.2366   -3.3435 C   0  0  0  0  0  0  0  0  0  0  0  0
  -30.9255   -6.2687   -3.1863 C   0  0  0  0  0  0  0  0  0  0  0  0
  -29.6947   -6.1443   -3.8065 C   0  0  0  0  0  0  0  0  0  0  0  0
  -29.3134   -5.0629   -4.5271 N   0  0  0  0  0  0  0  0  0  0  0  0
  8  9  2  0  0  0
  9 10  1  0  0  0
  9  1  1  0  0  0
 10 12  1  0  0  0
 10 11  1  0  0  0
 12 13  1  0  0  0
 12 16  1  0  0  0
 13 14  1  0  0  0
 14 15  1  0  0  0
 15 16  1  0  0  0
  1  2  1  0  0  0
  1  7  2  0  0  0
  2  3  2  0  0  0
  3  4  1  0  0  0
  4  5  1  0  0  0
  4  6  2  0  0  0
  6 17  1  0  0  0
  6  7  1  0  0  0
 17 19  1  0  0  0
 17 18  1  0  0  0
 19 20  1  0  0  0
 20 21  2  0  0  0
 20 24  1  0  0  0
 21 22  1  0  0  0
 22 23  2  0  0  0
 23 25  1  0  0  0
 23 24  1  0  0  0
 25 27  1  0  0  0
 25 26  1  0  0  0
 27 28  1  0  0  0
 27 32  2  0  0  0
 28 29  2  0  0  0
 29 30  1  0  0  0
 30 31  2  0  0  0
 31 32  1  0  0  0
M  END
> <minimizedAffinity>
-10.36081

$$$$
