CHEMBL3287320


 50 54  0  0  0  0  0  0  0  0999 V2000
  -24.3230   -1.2971  -13.0916 C   0  0  0  0  0  0  0  0  0  0  0  0
  -24.2742   -0.4980  -14.2370 C   0  0  0  0  0  0  0  0  0  0  0  0
  -23.1658    0.3091  -14.4946 C   0  0  0  0  0  0  0  0  0  0  0  0
  -22.1155    0.3867  -13.5816 C   0  0  0  0  0  0  0  0  0  0  0  0
  -22.2079   -0.3362  -12.3862 C   0  0  0  0  0  0  0  0  0  0  0  0
  -23.3045   -1.1722  -12.1501 C   0  0  0  0  0  0  0  0  0  0  0  0
  -23.3390   -1.8917  -11.0195 F   0  0  0  0  0  0  0  0  0  0  0  0
  -20.9523    1.1468  -13.8151 N   0  0  0  0  0  0  0  0  0  0  0  0
  -19.9501    0.8728  -14.7271 C   0  0  0  0  0  0  0  0  0  0  0  0
  -19.8854   -0.0488  -15.5280 O   0  0  0  0  0  0  0  0  0  0  0  0
  -20.7873    1.9291  -13.1896 H   0  0  0  0  0  0  0  0  0  0  0  0
  -18.8092    1.8451  -14.6800 C   0  0  0  0  0  0  0  0  0  0  0  0
  -19.1146    3.2937  -14.2743 C   0  0  0  0  0  0  0  0  0  0  0  0
  -18.8216    2.9746  -15.7043 C   0  0  0  0  0  0  0  0  0  0  0  0
  -17.5455    1.2709  -14.1196 C   0  0  0  0  0  0  0  0  0  0  0  0
  -17.1316    1.7383  -13.0684 O   0  0  0  0  0  0  0  0  0  0  0  0
  -16.9349    0.2528  -14.8339 N   0  0  0  0  0  0  0  0  0  0  0  0
  -17.1557    0.1746  -15.8180 H   0  0  0  0  0  0  0  0  0  0  0  0
  -15.7902   -0.4099  -14.3408 C   0  0  0  0  0  0  0  0  0  0  0  0
  -14.5299    0.0278  -14.7328 C   0  0  0  0  0  0  0  0  0  0  0  0
  -13.3868   -0.5667  -14.1842 C   0  0  0  0  0  0  0  0  0  0  0  0
  -13.4815   -1.6437  -13.2832 C   0  0  0  0  0  0  0  0  0  0  0  0
  -14.7509   -2.1297  -12.9217 C   0  0  0  0  0  0  0  0  0  0  0  0
  -15.8948   -1.4936  -13.4566 C   0  0  0  0  0  0  0  0  0  0  0  0
  -14.9651   -3.2929  -11.9800 C   0  0  0  0  0  0  0  0  0  0  0  0
  -14.4035   -3.1460  -10.7515 F   0  0  0  0  0  0  0  0  0  0  0  0
  -16.2831   -3.5343  -11.7519 F   0  0  0  0  0  0  0  0  0  0  0  0
  -14.4479   -4.4530  -12.4763 F   0  0  0  0  0  0  0  0  0  0  0  0
  -12.2574   -2.1986  -12.7811 C   0  0  0  0  0  0  0  0  0  0  0  0
  -11.2587   -2.6049  -12.3438 N   0  0  0  0  0  0  0  0  0  0  0  0
  -25.3384   -2.2086  -12.8617 O   0  0  0  0  0  0  0  0  0  0  0  0
  -27.3263   -2.5146   -9.9314 C   0  0  0  0  0  0  0  0  0  0  0  0
  -28.1798   -1.4873  -10.0146 N   0  0  0  0  0  0  0  0  0  0  0  0
  -27.9831   -0.6164  -11.0292 C   0  0  0  0  0  0  0  0  0  0  0  0
  -27.0156   -0.7657  -11.9951 C   0  0  0  0  0  0  0  0  0  0  0  0
  -26.2312   -1.8770  -11.8467 C   0  0  0  0  0  0  0  0  0  0  0  0
  -26.3231   -2.7005  -10.7924 N   0  0  0  0  0  0  0  0  0  0  0  0
  -27.5145   -3.4661   -8.9256 N   0  0  0  0  0  0  0  0  0  0  0  0
  -27.6057   -4.3793   -9.3502 H   0  0  0  0  0  0  0  0  0  0  0  0
  -28.8254   -2.1279   -5.6855 C   0  0  0  0  0  0  0  0  0  0  0  0
  -30.0017   -2.8744   -5.5679 C   0  0  0  0  0  0  0  0  0  0  0  0
  -30.3441   -3.8078   -6.5479 C   0  0  0  0  0  0  0  0  0  0  0  0
  -29.5170   -4.0029   -7.6577 C   0  0  0  0  0  0  0  0  0  0  0  0
  -28.3260   -3.2855   -7.7877 C   0  0  0  0  0  0  0  0  0  0  0  0
  -28.0010   -2.3463   -6.7972 C   0  0  0  0  0  0  0  0  0  0  0  0
  -28.4562   -1.0829   -4.6695 C   0  0  0  0  0  0  0  0  0  0  0  0
  -30.2744    0.9167   -5.5175 C   0  0  0  0  0  0  0  0  0  0  0  0
  -28.5405    0.5711   -5.3556 S   0  0  0  0  0  0  0  0  0  0  0  0
  -27.9507    0.5703   -6.6784 O   0  0  0  0  0  0  0  0  0  0  0  0
  -28.0303    1.4736   -4.3347 O   0  0  0  0  0  0  0  0  0  0  0  0
 47 48  1  0  0  0
 48 49  2  0  0  0
 48 50  2  0  0  0
 48 46  1  0  0  0
 46 40  1  0  0  0
 40 41  1  0  0  0
 40 45  2  0  0  0
 41 42  2  0  0  0
 42 43  1  0  0  0
 43 44  2  0  0  0
 44 38  1  0  0  0
 44 45  1  0  0  0
 38 32  1  0  0  0
 38 39  1  0  0  0
 32 33  1  0  0  0
 32 37  2  0  0  0
 33 34  2  0  0  0
 34 35  1  0  0  0
 35 36  2  0  0  0
 36 31  1  0  0  0
 36 37  1  0  0  0
 31  1  1  0  0  0
  1  2  1  0  0  0
  1  6  2  0  0  0
  2  3  2  0  0  0
  3  4  1  0  0  0
  4  8  1  0  0  0
  4  5  2  0  0  0
  8  9  1  0  0  0
  8 11  1  0  0  0
  9 10  2  0  0  0
  9 12  1  0  0  0
 12 15  1  0  0  0
 12 13  1  0  0  0
 12 14  1  0  0  0
 15 16  2  0  0  0
 15 17  1  0  0  0
 17 19  1  0  0  0
 17 18  1  0  0  0
 19 20  1  0  0  0
 19 24  2  0  0  0
 20 21  2  0  0  0
 21 22  1  0  0  0
 22 29  1  0  0  0
 22 23  2  0  0  0
 29 30  3  0  0  0
 23 25  1  0  0  0
 23 24  1  0  0  0
 25 26  1  0  0  0
 25 27  1  0  0  0
 25 28  1  0  0  0
 13 14  1  0  0  0
  5  6  1  0  0  0
  6  7  1  0  0  0
M  END
> <minimizedAffinity>
-10.35196

$$$$
