CHEMBL1981047


 37 41  0  0  0  0  0  0  0  0999 V2000
  -13.0917    0.9976  -17.5830 C   0  0  0  0  0  0  0  0  0  0  0  0
  -11.9385    1.4375  -17.5964 O   0  0  0  0  0  0  0  0  0  0  0  0
  -14.1446    1.8358  -17.2487 N   0  0  0  0  0  0  0  0  0  0  0  0
  -13.9059    3.3027  -17.0216 C   0  0  0  0  0  0  0  0  0  0  0  0
  -15.2064    3.6529  -16.4293 C   0  0  0  0  0  0  0  0  0  0  0  0
  -15.8574    4.7690  -16.0502 N   0  0  0  0  0  0  0  0  0  0  0  0
  -17.0763    4.4525  -15.5424 N   0  0  0  0  0  0  0  0  0  0  0  0
  -17.1962    3.1214  -15.6333 C   0  0  0  0  0  0  0  0  0  0  0  0
  -16.0226    2.5897  -16.1903 C   0  0  0  0  0  0  0  0  0  0  0  0
  -15.3963    1.3402  -16.6233 C   0  0  0  0  0  0  0  0  0  0  0  0
  -15.6008    5.7423  -16.0862 H   0  0  0  0  0  0  0  0  0  0  0  0
  -18.3072    2.3875  -15.2399 N   0  0  0  0  0  0  0  0  0  0  0  0
  -19.5633    2.9498  -15.1069 C   0  0  0  0  0  0  0  0  0  0  0  0
  -19.8526    4.1362  -15.3063 O   0  0  0  0  0  0  0  0  0  0  0  0
  -18.1762    1.4001  -15.1044 H   0  0  0  0  0  0  0  0  0  0  0  0
  -20.6975    2.0765  -14.7129 C   0  0  0  0  0  0  0  0  0  0  0  0
  -20.6735    0.6881  -14.8111 C   0  0  0  0  0  0  0  0  0  0  0  0
  -21.7792   -0.0496  -14.3644 C   0  0  0  0  0  0  0  0  0  0  0  0
  -22.9277    0.5626  -13.8292 C   0  0  0  0  0  0  0  0  0  0  0  0
  -22.9122    1.9492  -13.6911 C   0  0  0  0  0  0  0  0  0  0  0  0
  -21.8185    2.6966  -14.1351 C   0  0  0  0  0  0  0  0  0  0  0  0
  -23.9907   -0.2228  -13.4337 N   0  0  0  0  0  0  0  0  0  0  0  0
  -24.4734   -1.3525  -14.2392 C   0  0  0  0  0  0  0  0  0  0  0  0
  -25.9921   -1.5164  -13.9805 C   0  0  0  0  0  0  0  0  0  0  0  0
  -26.3020   -1.7139  -12.5424 N   0  0  0  0  0  0  0  0  0  0  0  0
  -27.7428   -1.8249  -12.3374 C   0  0  0  0  0  0  0  0  0  0  0  0
  -25.7514   -0.5788  -11.7633 C   0  0  0  0  0  0  0  0  0  0  0  0
  -24.2354   -0.3884  -11.9893 C   0  0  0  0  0  0  0  0  0  0  0  0
  -13.3789   -0.5129  -18.0385 C   0  0  0  0  0  0  0  0  0  0  0  0
  -13.1740   -0.7873  -19.5429 C   0  0  0  0  0  0  0  0  0  0  0  0
  -12.7538   -2.0505  -19.9872 C   0  0  0  0  0  0  0  0  0  0  0  0
  -12.4689   -2.2856  -21.3400 C   0  0  0  0  0  0  0  0  0  0  0  0
  -12.6048   -1.2666  -22.2822 C   0  0  0  0  0  0  0  0  0  0  0  0
  -12.9954    0.0002  -21.8650 C   0  0  0  0  0  0  0  0  0  0  0  0
  -13.2622    0.2400  -20.5107 C   0  0  0  0  0  0  0  0  0  0  0  0
  -12.9463   -1.7242  -15.9899 C   0  0  0  0  0  0  0  0  0  0  0  0
  -12.7763   -1.6252  -17.3885 O   0  0  0  0  0  0  0  0  0  0  0  0
 36 37  1  0  0  0
 37 29  1  0  0  0
 29  1  1  0  0  0
 29 30  1  0  0  0
  1  2  2  0  0  0
  1  3  1  0  0  0
  3  4  1  0  0  0
  3 10  1  0  0  0
  4  5  1  0  0  0
  5  6  1  0  0  0
  5  9  2  0  0  0
  6  7  1  0  0  0
  6 11  1  0  0  0
  7  8  2  0  0  0
  8 12  1  0  0  0
  8  9  1  0  0  0
 12 13  1  0  0  0
 12 15  1  0  0  0
 13 14  2  0  0  0
 13 16  1  0  0  0
 16 17  1  0  0  0
 16 21  2  0  0  0
 17 18  2  0  0  0
 18 19  1  0  0  0
 19 22  1  0  0  0
 19 20  2  0  0  0
 22 23  1  0  0  0
 22 28  1  0  0  0
 23 24  1  0  0  0
 24 25  1  0  0  0
 25 26  1  0  0  0
 25 27  1  0  0  0
 27 28  1  0  0  0
 20 21  1  0  0  0
  9 10  1  0  0  0
 30 31  1  0  0  0
 30 35  2  0  0  0
 31 32  2  0  0  0
 32 33  1  0  0  0
 33 34  2  0  0  0
 34 35  1  0  0  0
M  END
> <minimizedAffinity>
-9.25374

$$$$
