CHEMBL1721885


 36 39  0  0  0  0  0  0  0  0999 V2000
  -14.2587    0.6077  -17.8094 C   0  0  0  0  0  0  0  0  0  0  0  0
  -14.6900    0.5160  -16.3912 C   0  0  0  0  0  0  0  0  0  0  0  0
  -15.9388    1.0248  -16.1393 N   0  0  0  0  0  0  0  0  0  0  0  0
  -16.4726    0.4942  -15.0060 C   0  0  0  0  0  0  0  0  0  0  0  0
  -15.4001   -0.0755  -14.3302 C   0  0  0  0  0  0  0  0  0  0  0  0
  -15.4439   -0.7352  -12.9874 C   0  0  0  0  0  0  0  0  0  0  0  0
  -14.2031    0.0319  -15.1764 C   0  0  0  0  0  0  0  0  0  0  0  0
  -16.4578    1.5617  -16.8243 H   0  0  0  0  0  0  0  0  0  0  0  0
  -17.8699    0.5928  -14.7345 C   0  0  0  0  0  0  0  0  0  0  0  0
  -18.6511    1.6823  -14.7516 C   0  0  0  0  0  0  0  0  0  0  0  0
  -18.3383    3.1487  -15.0147 C   0  0  0  0  0  0  0  0  0  0  0  0
  -17.2724    3.6624  -15.2874 O   0  0  0  0  0  0  0  0  0  0  0  0
  -19.5375    3.8169  -14.8880 N   0  0  0  0  0  0  0  0  0  0  0  0
  -20.5788    2.9596  -14.5773 C   0  0  0  0  0  0  0  0  0  0  0  0
  -21.8939    3.2994  -14.3698 C   0  0  0  0  0  0  0  0  0  0  0  0
  -22.7841    2.2664  -14.0746 C   0  0  0  0  0  0  0  0  0  0  0  0
  -22.3204    0.9401  -13.9982 C   0  0  0  0  0  0  0  0  0  0  0  0
  -23.1953   -0.0344  -13.7099 F   0  0  0  0  0  0  0  0  0  0  0  0
  -20.9899    0.6053  -14.2017 C   0  0  0  0  0  0  0  0  0  0  0  0
  -20.1043    1.6362  -14.4920 C   0  0  0  0  0  0  0  0  0  0  0  0
  -19.6175    4.8219  -15.0032 H   0  0  0  0  0  0  0  0  0  0  0  0
  -12.8613   -0.4164  -14.7368 C   0  0  0  0  0  0  0  0  0  0  0  0
  -11.9523    0.3958  -14.5607 O   0  0  0  0  0  0  0  0  0  0  0  0
  -12.5875   -1.7675  -14.6080 N   0  0  0  0  0  0  0  0  0  0  0  0
  -13.3489   -2.4260  -14.6925 H   0  0  0  0  0  0  0  0  0  0  0  0
  -11.3105   -2.2217  -14.0274 C   0  0  0  0  0  0  0  0  0  0  0  0
  -11.3612   -3.1255  -12.7694 C   0  0  0  0  0  0  0  0  0  0  0  0
  -10.9706   -4.4760  -13.0633 O   0  0  0  0  0  0  0  0  0  0  0  0
  -11.2502   -4.6707  -13.9777 H   0  0  0  0  0  0  0  0  0  0  0  0
  -12.6867   -3.1945  -11.9821 C   0  0  0  0  0  0  0  0  0  0  0  0
  -13.1620   -4.4808  -11.4327 N   0  0  0  0  0  0  0  0  0  0  0  0
  -14.4057   -5.0062  -12.0405 C   0  0  0  0  0  0  0  0  0  0  0  0
  -15.7168   -4.2964  -11.6364 C   0  0  0  0  0  0  0  0  0  0  0  0
  -15.8436   -4.1018  -10.2219 O   0  0  0  0  0  0  0  0  0  0  0  0
  -14.6788   -3.4797   -9.6715 C   0  0  0  0  0  0  0  0  0  0  0  0
  -13.4316   -4.3307   -9.9749 C   0  0  0  0  0  0  0  0  0  0  0  0
  1  2  1  0  0  0
  2  3  1  0  0  0
  2  7  2  0  0  0
  3  4  1  0  0  0
  3  8  1  0  0  0
  4  9  1  0  0  0
  4  5  2  0  0  0
  9 10  2  0  0  0
 10 11  1  0  0  0
 10 20  1  0  0  0
 11 12  2  0  0  0
 11 13  1  0  0  0
 13 14  1  0  0  0
 13 21  1  0  0  0
 14 15  1  0  0  0
 14 20  2  0  0  0
 15 16  2  0  0  0
 16 17  1  0  0  0
 17 18  1  0  0  0
 17 19  2  0  0  0
 19 20  1  0  0  0
  5  6  1  0  0  0
  5  7  1  0  0  0
  7 22  1  0  0  0
 22 23  2  0  0  0
 22 24  1  0  0  0
 24 26  1  0  0  0
 24 25  1  0  0  0
 27 30  1  0  0  0
 27 28  1  0  0  0
 27 26  1  0  0  0
 28 29  1  0  0  0
 30 31  1  0  0  0
 31 32  1  0  0  0
 31 36  1  0  0  0
 32 33  1  0  0  0
 33 34  1  0  0  0
 34 35  1  0  0  0
 35 36  1  0  0  0
M  END
> <minimizedAffinity>
-8.59615

$$$$
