CHEMBL3890852


 37 40  0  0  0  0  0  0  0  0999 V2000
  -28.3528   -2.0469   -8.2701 N   0  0  0  0  0  0  0  0  0  0  0  0
  -28.8941   -3.3641   -7.9991 C   0  0  0  0  0  0  0  0  0  0  0  0
  -30.1649   -3.4243   -7.4335 C   0  0  0  0  0  0  0  0  0  0  0  0
  -30.4663   -4.4199   -6.5314 C   0  0  0  0  0  0  0  0  0  0  0  0
  -29.6847   -5.5275   -6.4178 C   0  0  0  0  0  0  0  0  0  0  0  0
  -30.0194   -6.3061   -5.3969 N   0  0  0  0  0  0  0  0  0  0  0  0
  -29.5467   -7.5461   -5.4452 C   0  0  0  0  0  0  0  0  0  0  0  0
  -28.8259   -8.0055   -6.5291 C   0  0  0  0  0  0  0  0  0  0  0  0
  -28.3202   -7.1388   -7.4796 N   0  0  0  0  0  0  0  0  0  0  0  0
  -28.6919   -5.7995   -7.3838 C   0  0  0  0  0  0  0  0  0  0  0  0
  -28.2225   -4.6108   -8.0933 C   0  0  0  0  0  0  0  0  0  0  0  0
  -28.8721   -9.4537   -6.7117 C   0  0  0  0  0  0  0  0  0  0  0  0
  -28.0943  -10.4712   -6.0894 C   0  0  0  0  0  0  0  0  0  0  0  0
  -28.1821  -11.6536   -6.7160 N   0  0  0  0  0  0  0  0  0  0  0  0
  -28.9941  -11.3940   -7.7543 N   0  0  0  0  0  0  0  0  0  0  0  0
  -29.5351  -12.4657   -8.5558 C   0  0  0  0  0  0  0  0  0  0  0  0
  -29.2966  -10.0672   -7.8793 C   0  0  0  0  0  0  0  0  0  0  0  0
  -25.5788   -1.6247  -10.8894 C   0  0  0  0  0  0  0  0  0  0  0  0
  -26.3033   -1.7773  -12.0716 C   0  0  0  0  0  0  0  0  0  0  0  0
  -27.6857   -1.7989  -12.0185 C   0  0  0  0  0  0  0  0  0  0  0  0
  -28.3245   -1.6697  -10.7770 C   0  0  0  0  0  0  0  0  0  0  0  0
  -27.6422   -1.7558   -9.5430 C   0  0  0  0  0  0  0  0  0  0  0  0
  -26.2454   -1.6017   -9.6437 C   0  0  0  0  0  0  0  0  0  0  0  0
  -23.4835   -1.9947  -11.9593 C   0  0  0  0  0  0  0  0  0  0  0  0
  -24.2106   -1.5363  -10.8218 O   0  0  0  0  0  0  0  0  0  0  0  0
  -28.5280   -1.9814  -13.0840 O   0  0  0  0  0  0  0  0  0  0  0  0
  -27.9444   -2.0441  -14.3820 C   0  0  0  0  0  0  0  0  0  0  0  0
  -27.6207   -1.4000   -7.1018 C   0  0  0  0  0  0  0  0  0  0  0  0
  -28.1500    0.0171   -6.8510 C   0  0  0  0  0  0  0  0  0  0  0  0
  -27.5613   -2.1989   -5.7683 C   0  0  0  0  0  0  0  0  0  0  0  0
  -28.0976   -1.4470   -4.6321 N   0  0  0  0  0  0  0  0  0  0  0  0
  -28.0736   -0.4391   -4.7867 H   0  0  0  0  0  0  0  0  0  0  0  0
  -29.4264   -1.9118   -4.2071 C   0  0  0  0  0  0  0  0  0  0  0  0
  -29.4391   -3.0857   -3.2025 C   0  0  0  0  0  0  0  0  0  0  0  0
  -28.5992   -4.0688   -3.5507 F   0  0  0  0  0  0  0  0  0  0  0  0
  -29.0761   -2.6396   -1.9707 F   0  0  0  0  0  0  0  0  0  0  0  0
  -30.6798   -3.6124   -3.0791 F   0  0  0  0  0  0  0  0  0  0  0  0
 24 25  1  0  0  0
 25 18  1  0  0  0
 18 19  1  0  0  0
 18 23  2  0  0  0
 19 20  2  0  0  0
 20 26  1  0  0  0
 20 21  1  0  0  0
 26 27  1  0  0  0
 21 22  2  0  0  0
 22  1  1  0  0  0
 22 23  1  0  0  0
  1  2  1  0  0  0
  1 28  1  0  0  0
  2  3  1  0  0  0
  2 11  2  0  0  0
  3  4  2  0  0  0
  4  5  1  0  0  0
  5  6  1  0  0  0
  5 10  2  0  0  0
  6  7  2  0  0  0
  7  8  1  0  0  0
  8 12  1  0  0  0
  8  9  2  0  0  0
 12 13  1  0  0  0
 12 17  2  0  0  0
 13 14  2  0  0  0
 14 15  1  0  0  0
 15 16  1  0  0  0
 15 17  1  0  0  0
  9 10  1  0  0  0
 10 11  1  0  0  0
 28 29  1  0  0  0
 28 30  1  0  0  0
 30 31  1  0  0  0
 31 33  1  0  0  0
 31 32  1  0  0  0
 33 34  1  0  0  0
 34 35  1  0  0  0
 34 36  1  0  0  0
 34 37  1  0  0  0
M  END
> <minimizedAffinity>
-7.36729

$$$$
