CHEMBL369322


 33 36  0  0  0  0  0  0  0  0999 V2000
  -16.0370    0.8002  -14.7920 C   0  0  0  0  0  0  0  0  0  0  0  0
  -16.0526   -0.0379  -13.7913 N   0  0  0  0  0  0  0  0  0  0  0  0
  -15.0257   -0.1039  -12.9097 C   0  0  0  0  0  0  0  0  0  0  0  0
  -13.9569    0.6150  -12.9361 N   0  0  0  0  0  0  0  0  0  0  0  0
  -13.9207    1.4785  -13.9588 N   0  0  0  0  0  0  0  0  0  0  0  0
  -12.8826    2.3178  -14.1592 C   0  0  0  0  0  0  0  0  0  0  0  0
  -13.1332    3.0726  -15.2705 C   0  0  0  0  0  0  0  0  0  0  0  0
  -14.4007    2.6394  -15.8216 C   0  0  0  0  0  0  0  0  0  0  0  0
  -14.8730    1.6578  -14.9213 C   0  0  0  0  0  0  0  0  0  0  0  0
  -15.0761    3.1327  -17.0942 C   0  0  0  0  0  0  0  0  0  0  0  0
  -15.7761    4.4796  -16.8970 C   0  0  0  0  0  0  0  0  0  0  0  0
  -14.1615    3.2474  -18.3220 C   0  0  0  0  0  0  0  0  0  0  0  0
  -17.1430    0.8450  -15.6187 N   0  0  0  0  0  0  0  0  0  0  0  0
  -17.0698    0.4738  -16.5541 H   0  0  0  0  0  0  0  0  0  0  0  0
  -22.2125    3.1897  -14.2474 C   0  0  0  0  0  0  0  0  0  0  0  0
  -20.8986    2.5730  -14.6303 C   0  0  0  0  0  0  0  0  0  0  0  0
  -19.7913    3.3820  -14.8905 C   0  0  0  0  0  0  0  0  0  0  0  0
  -18.5592    2.8088  -15.2191 C   0  0  0  0  0  0  0  0  0  0  0  0
  -18.3851    1.4162  -15.2690 C   0  0  0  0  0  0  0  0  0  0  0  0
  -19.5075    0.6085  -15.0491 C   0  0  0  0  0  0  0  0  0  0  0  0
  -20.7461    1.1872  -14.7377 C   0  0  0  0  0  0  0  0  0  0  0  0
  -21.8472    0.4007  -14.5337 O   0  0  0  0  0  0  0  0  0  0  0  0
  -21.6157   -0.5218  -14.7257 H   0  0  0  0  0  0  0  0  0  0  0  0
  -12.2885    4.0386  -15.7440 O   0  0  0  0  0  0  0  0  0  0  0  0
  -12.6648    5.3542  -15.2792 C   0  0  0  0  0  0  0  0  0  0  0  0
  -11.8891    6.4765  -15.9547 C   0  0  0  0  0  0  0  0  0  0  0  0
  -12.2191    6.5404  -17.4630 C   0  0  0  0  0  0  0  0  0  0  0  0
  -13.0419    7.6966  -17.8790 N   0  0  0  0  0  0  0  0  0  0  0  0
  -12.2666    8.6733  -18.6596 C   0  0  0  0  0  0  0  0  0  0  0  0
  -13.1134    9.8846  -19.0547 C   0  0  0  0  0  0  0  0  0  0  0  0
  -14.3505    9.4627  -19.8336 C   0  0  0  0  0  0  0  0  0  0  0  0
  -15.1261    8.4147  -19.0468 C   0  0  0  0  0  0  0  0  0  0  0  0
  -14.2274    7.2443  -18.6354 C   0  0  0  0  0  0  0  0  0  0  0  0
 15 16  1  0  0  0
 16 17  1  0  0  0
 16 21  2  0  0  0
 17 18  2  0  0  0
 18 19  1  0  0  0
 19 13  1  0  0  0
 19 20  2  0  0  0
 13  1  1  0  0  0
 13 14  1  0  0  0
  1  2  2  0  0  0
  1  9  1  0  0  0
  2  3  1  0  0  0
  3  4  2  0  0  0
  4  5  1  0  0  0
  5  6  1  0  0  0
  5  9  1  0  0  0
  6  7  2  0  0  0
  7 24  1  0  0  0
  7  8  1  0  0  0
 24 25  1  0  0  0
 25 26  1  0  0  0
 26 27  1  0  0  0
 27 28  1  0  0  0
 28 29  1  0  0  0
 28 33  1  0  0  0
 29 30  1  0  0  0
 30 31  1  0  0  0
 31 32  1  0  0  0
 32 33  1  0  0  0
  8 10  1  0  0  0
  8  9  2  0  0  0
 10 11  1  0  0  0
 10 12  1  0  0  0
 20 21  1  0  0  0
 21 22  1  0  0  0
 22 23  1  0  0  0
M  END
> <minimizedAffinity>
-7.40487

$$$$
