CHEMBL3944241


 37 42  0  0  0  0  0  0  0  0999 V2000
  -27.3562  -10.5754   -5.0049 N   0  0  0  0  0  0  0  0  0  0  0  0
  -27.7735   -9.2314   -5.4258 C   0  0  0  0  0  0  0  0  0  0  0  0
  -27.2108   -8.2840   -4.6217 C   0  0  0  0  0  0  0  0  0  0  0  0
  -27.7506   -7.0613   -4.5138 C   0  0  0  0  0  0  0  0  0  0  0  0
  -28.8184   -6.7366   -5.2678 C   0  0  0  0  0  0  0  0  0  0  0  0
  -29.5444   -5.9214   -4.5645 N   0  0  0  0  0  0  0  0  0  0  0  0
  -29.6907   -4.7211   -5.0978 C   0  0  0  0  0  0  0  0  0  0  0  0
  -29.5620   -4.4196   -6.4138 C   0  0  0  0  0  0  0  0  0  0  0  0
  -29.2524   -5.5604   -7.2508 N   0  0  0  0  0  0  0  0  0  0  0  0
  -28.8494   -6.9709   -6.5830 C   0  0  0  0  0  0  0  0  0  0  0  0
  -28.4793   -8.5779   -6.5353 C   0  0  0  0  0  0  0  0  0  0  0  0
  -29.3457   -2.8504   -6.4942 C   0  0  0  0  0  0  0  0  0  0  0  0
  -28.1393   -2.3330   -7.1527 C   0  0  0  0  0  0  0  0  0  0  0  0
  -27.6116   -1.2226   -6.6458 N   0  0  0  0  0  0  0  0  0  0  0  0
  -28.4679   -0.8694   -5.6854 N   0  0  0  0  0  0  0  0  0  0  0  0
  -28.1813    0.3925   -5.0107 C   0  0  0  0  0  0  0  0  0  0  0  0
  -29.4658   -1.8448   -5.4957 C   0  0  0  0  0  0  0  0  0  0  0  0
  -24.4704  -12.0080   -2.8897 C   0  0  0  0  0  0  0  0  0  0  0  0
  -23.5164  -12.1580   -3.8697 C   0  0  0  0  0  0  0  0  0  0  0  0
  -23.7892  -11.7654   -5.1639 C   0  0  0  0  0  0  0  0  0  0  0  0
  -25.0231  -11.1784   -5.5040 C   0  0  0  0  0  0  0  0  0  0  0  0
  -26.0933  -11.0756   -4.5882 C   0  0  0  0  0  0  0  0  0  0  0  0
  -25.7295  -11.4338   -3.2238 C   0  0  0  0  0  0  0  0  0  0  0  0
  -22.9185  -12.4656   -1.1122 C   0  0  0  0  0  0  0  0  0  0  0  0
  -24.2833  -12.3826   -1.5578 O   0  0  0  0  0  0  0  0  0  0  0  0
  -22.9419  -11.8632   -6.2222 O   0  0  0  0  0  0  0  0  0  0  0  0
  -21.5694  -11.7287   -5.9015 C   0  0  0  0  0  0  0  0  0  0  0  0
  -28.2902  -11.6729   -5.5988 C   0  0  0  0  0  0  0  0  0  0  0  0
  -28.3338  -12.2614   -7.0365 C   0  0  0  0  0  0  0  0  0  0  0  0
  -28.1408  -11.7014   -8.4470 C   0  0  0  0  0  0  0  0  0  0  0  0
  -29.4739  -12.2848   -8.0469 C   0  0  0  0  0  0  0  0  0  0  0  0
  -30.7148  -11.4647   -7.8201 C   0  0  0  0  0  0  0  0  0  0  0  0
  -30.9402  -10.2001   -8.3782 C   0  0  0  0  0  0  0  0  0  0  0  0
  -32.0785   -9.4776   -8.0382 C   0  0  0  0  0  0  0  0  0  0  0  0
  -33.0441   -9.9564   -7.2378 N   0  0  0  0  0  0  0  0  0  0  0  0
  -32.8389  -11.1882   -6.7364 C   0  0  0  0  0  0  0  0  0  0  0  0
  -31.7248  -11.9713   -6.9991 C   0  0  0  0  0  0  0  0  0  0  0  0
 24 25  1  0  0  0
 25 18  1  0  0  0
 18 19  1  0  0  0
 18 23  2  0  0  0
 19 20  2  0  0  0
 20 26  1  0  0  0
 20 21  1  0  0  0
 26 27  1  0  0  0
 21 22  2  0  0  0
 22  1  1  0  0  0
 22 23  1  0  0  0
  1 28  1  0  0  0
  1  2  1  0  0  0
 28 29  1  0  0  0
 29 30  1  0  0  0
 29 31  1  0  0  0
 30 31  1  0  0  0
 31 32  1  0  0  0
 32 33  1  0  0  0
 32 37  2  0  0  0
 33 34  2  0  0  0
 34 35  1  0  0  0
 35 36  2  0  0  0
 36 37  1  0  0  0
  2  3  1  0  0  0
  2 11  2  0  0  0
  3  4  2  0  0  0
  4  5  1  0  0  0
  5  6  1  0  0  0
  5 10  2  0  0  0
  6  7  2  0  0  0
  7  8  1  0  0  0
  8 12  1  0  0  0
  8  9  2  0  0  0
 12 13  1  0  0  0
 12 17  2  0  0  0
 13 14  2  0  0  0
 14 15  1  0  0  0
 15 16  1  0  0  0
 15 17  1  0  0  0
  9 10  1  0  0  0
 10 11  1  0  0  0
M  END
> <minimizedAffinity>
-7.94188

$$$$
