CHEMBL147180


 30 33  0  0  0  0  0  0  0  0999 V2000
  -26.1446   11.9877  -14.0001 C   0  0  0  0  0  0  0  0  0  0  0  0
  -27.1905   12.0278  -13.0724 C   0  0  0  0  0  0  0  0  0  0  0  0
  -28.4738   11.5245  -13.3903 C   0  0  0  0  0  0  0  0  0  0  0  0
  -29.6380   11.7591  -12.6474 C   0  0  0  0  0  0  0  0  0  0  0  0
  -30.8269   11.2446  -13.0173 N   0  0  0  0  0  0  0  0  0  0  0  0
  -30.8526   10.5089  -14.1269 C   0  0  0  0  0  0  0  0  0  0  0  0
  -29.8103   10.2643  -14.9259 N   0  0  0  0  0  0  0  0  0  0  0  0
  -28.6389   10.7940  -14.5663 C   0  0  0  0  0  0  0  0  0  0  0  0
  -27.5697   10.6594  -15.4298 C   0  0  0  0  0  0  0  0  0  0  0  0
  -26.3329   11.2949  -15.2078 C   0  0  0  0  0  0  0  0  0  0  0  0
  -24.0192   11.9749  -12.9187 C   0  0  0  0  0  0  0  0  0  0  0  0
  -24.9505   12.6286  -13.7861 O   0  0  0  0  0  0  0  0  0  0  0  0
  -29.6005   12.6589  -11.5505 N   0  0  0  0  0  0  0  0  0  0  0  0
  -28.6501   12.9730  -11.3734 H   0  0  0  0  0  0  0  0  0  0  0  0
  -30.3317   12.4813  -10.3533 C   0  0  0  0  0  0  0  0  0  0  0  0
  -31.7344   12.5132  -10.3428 C   0  0  0  0  0  0  0  0  0  0  0  0
  -32.4458   12.2338   -9.1745 C   0  0  0  0  0  0  0  0  0  0  0  0
  -31.7552   11.9364   -8.0016 C   0  0  0  0  0  0  0  0  0  0  0  0
  -32.6326   11.5183   -6.5820 Cl  0  0  0  0  0  0  0  0  0  0  0  0
  -30.3639   11.9597   -7.9735 C   0  0  0  0  0  0  0  0  0  0  0  0
  -29.6672   12.2428   -9.1444 C   0  0  0  0  0  0  0  0  0  0  0  0
  -28.3249   12.2503   -9.1202 F   0  0  0  0  0  0  0  0  0  0  0  0
  -25.3072   11.2870  -16.1432 O   0  0  0  0  0  0  0  0  0  0  0  0
  -25.1159   10.0212  -16.8053 C   0  0  0  0  0  0  0  0  0  0  0  0
  -23.9819   10.0351  -17.8510 C   0  0  0  0  0  0  0  0  0  0  0  0
  -23.3855   11.3784  -17.9783 N   0  0  0  0  0  0  0  0  0  0  0  0
  -23.6115   12.0619  -19.2507 C   0  0  0  0  0  0  0  0  0  0  0  0
  -22.2775   12.1373  -19.9653 C   0  0  0  0  0  0  0  0  0  0  0  0
  -21.2326   12.0043  -18.8814 C   0  0  0  0  0  0  0  0  0  0  0  0
  -21.9544   11.4225  -17.6749 C   0  0  0  0  0  0  0  0  0  0  0  0
 11 12  1  0  0  0
 12  1  1  0  0  0
  1  2  1  0  0  0
  1 10  2  0  0  0
  2  3  2  0  0  0
  3  4  1  0  0  0
  3  8  1  0  0  0
  4 13  1  0  0  0
  4  5  2  0  0  0
 13 15  1  0  0  0
 13 14  1  0  0  0
 15 16  1  0  0  0
 15 21  2  0  0  0
 16 17  2  0  0  0
 17 18  1  0  0  0
 18 19  1  0  0  0
 18 20  2  0  0  0
 20 21  1  0  0  0
 21 22  1  0  0  0
  5  6  1  0  0  0
  6  7  2  0  0  0
  7  8  1  0  0  0
  8  9  2  0  0  0
  9 10  1  0  0  0
 10 23  1  0  0  0
 23 24  1  0  0  0
 24 25  1  0  0  0
 25 26  1  0  0  0
 26 27  1  0  0  0
 26 30  1  0  0  0
 27 28  1  0  0  0
 28 29  1  0  0  0
 29 30  1  0  0  0
M  END
> <minimizedAffinity>
-4.06725

$$$$
