CHEMBL3891130


 34 37  0  0  0  0  0  0  0  0999 V2000
  -28.8977   -7.4198   -8.3179 C   0  0  0  0  0  0  0  0  0  0  0  0
  -29.5507   -8.6091   -8.6577 C   0  0  0  0  0  0  0  0  0  0  0  0
  -30.8113   -8.9422   -8.1029 C   0  0  0  0  0  0  0  0  0  0  0  0
  -31.4756  -10.1618   -8.2917 C   0  0  0  0  0  0  0  0  0  0  0  0
  -32.6964  -10.4083   -7.7782 N   0  0  0  0  0  0  0  0  0  0  0  0
  -33.2418   -9.4317   -7.0497 C   0  0  0  0  0  0  0  0  0  0  0  0
  -32.6973   -8.2380   -6.8004 N   0  0  0  0  0  0  0  0  0  0  0  0
  -31.4874   -8.0128   -7.3208 C   0  0  0  0  0  0  0  0  0  0  0  0
  -30.8716   -6.8087   -7.0502 C   0  0  0  0  0  0  0  0  0  0  0  0
  -29.5574   -6.5068   -7.4803 C   0  0  0  0  0  0  0  0  0  0  0  0
  -26.9070   -8.0903   -9.4764 C   0  0  0  0  0  0  0  0  0  0  0  0
  -27.6346   -7.0994   -8.7505 O   0  0  0  0  0  0  0  0  0  0  0  0
  -30.8217  -11.1905   -9.0019 N   0  0  0  0  0  0  0  0  0  0  0  0
  -31.1791  -11.2728   -9.9511 H   0  0  0  0  0  0  0  0  0  0  0  0
  -29.4850  -11.6083   -8.8689 C   0  0  0  0  0  0  0  0  0  0  0  0
  -28.5991  -11.5697   -9.9525 C   0  0  0  0  0  0  0  0  0  0  0  0
  -27.2333  -11.7867   -9.7675 C   0  0  0  0  0  0  0  0  0  0  0  0
  -26.7287  -12.0383   -8.4888 C   0  0  0  0  0  0  0  0  0  0  0  0
  -24.8436  -12.1914   -8.3188 Br  0  0  0  0  0  0  0  0  0  0  0  0
  -27.5995  -12.1242   -7.3986 C   0  0  0  0  0  0  0  0  0  0  0  0
  -27.0465  -12.4647   -5.7965 Cl  0  0  0  0  0  0  0  0  0  0  0  0
  -28.9633  -11.9003   -7.5997 C   0  0  0  0  0  0  0  0  0  0  0  0
  -29.8159  -11.9429   -6.5606 F   0  0  0  0  0  0  0  0  0  0  0  0
  -28.8876   -5.3581   -7.0804 O   0  0  0  0  0  0  0  0  0  0  0  0
  -29.6760   -4.1589   -7.2063 C   0  0  0  0  0  0  0  0  0  0  0  0
  -30.0019   -3.4446   -5.8717 C   0  0  0  0  0  0  0  0  0  0  0  0
  -29.6377   -1.9443   -6.0161 C   0  0  0  0  0  0  0  0  0  0  0  0
  -28.1863   -1.7765   -6.2097 N   0  0  0  0  0  0  0  0  0  0  0  0
  -27.8401   -0.3595   -6.3473 C   0  0  0  0  0  0  0  0  0  0  0  0
  -27.4339   -2.3565   -5.0703 C   0  0  0  0  0  0  0  0  0  0  0  0
  -27.8956   -3.7546   -4.6239 C   0  0  0  0  0  0  0  0  0  0  0  0
  -27.1185   -4.5157   -4.0462 O   0  0  0  0  0  0  0  0  0  0  0  0
  -29.2576   -4.0115   -4.7396 N   0  0  0  0  0  0  0  0  0  0  0  0
  -29.8698   -5.0794   -3.9772 C   0  0  0  0  0  0  0  0  0  0  0  0
 11 12  1  0  0  0
 12  1  1  0  0  0
  1  2  1  0  0  0
  1 10  2  0  0  0
  2  3  2  0  0  0
  3  4  1  0  0  0
  3  8  1  0  0  0
  4 13  1  0  0  0
  4  5  2  0  0  0
 13 15  1  0  0  0
 13 14  1  0  0  0
 15 16  1  0  0  0
 15 22  2  0  0  0
 16 17  2  0  0  0
 17 18  1  0  0  0
 18 19  1  0  0  0
 18 20  2  0  0  0
 20 21  1  0  0  0
 20 22  1  0  0  0
 22 23  1  0  0  0
  5  6  1  0  0  0
  6  7  2  0  0  0
  7  8  1  0  0  0
  8  9  2  0  0  0
  9 10  1  0  0  0
 10 24  1  0  0  0
 24 25  1  0  0  0
 25 26  1  0  0  0
 26 27  1  0  0  0
 26 33  1  0  0  0
 27 28  1  0  0  0
 28 29  1  0  0  0
 28 30  1  0  0  0
 30 31  1  0  0  0
 31 32  2  0  0  0
 31 33  1  0  0  0
 33 34  1  0  0  0
M  END
> <minimizedAffinity>
-7.98440

$$$$
