CHEMBL3696097


 41 44  0  0  0  0  0  0  0  0999 V2000
  -15.1141    2.8503  -16.4734 C   0  0  0  0  0  0  0  0  0  0  0  0
  -15.9179    4.3509  -16.2341 S   0  0  0  0  0  0  0  0  0  0  0  0
  -15.3318    5.0884  -17.5641 N   0  0  0  0  0  0  0  0  0  0  0  0
  -14.5104    4.2720  -18.2097 C   0  0  0  0  0  0  0  0  0  0  0  0
  -14.3939    2.9208  -17.6733 C   0  0  0  0  0  0  0  0  0  0  0  0
  -15.5167   -0.1329  -13.4317 C   0  0  0  0  0  0  0  0  0  0  0  0
  -16.5852    0.1544  -14.2817 C   0  0  0  0  0  0  0  0  0  0  0  0
  -16.4484    1.1171  -15.2769 C   0  0  0  0  0  0  0  0  0  0  0  0
  -15.2518    1.8350  -15.4214 C   0  0  0  0  0  0  0  0  0  0  0  0
  -14.2092    1.5808  -14.5160 C   0  0  0  0  0  0  0  0  0  0  0  0
  -14.3379    0.6021  -13.5238 C   0  0  0  0  0  0  0  0  0  0  0  0
  -15.4592   -3.4398  -11.9925 N   0  0  0  0  0  0  0  0  0  0  0  0
  -15.2089   -2.4713  -12.9451 C   0  0  0  0  0  0  0  0  0  0  0  0
  -14.6433   -2.6524  -14.0150 O   0  0  0  0  0  0  0  0  0  0  0  0
  -15.6071   -1.2077  -12.5188 N   0  0  0  0  0  0  0  0  0  0  0  0
  -15.7602   -3.1166  -11.0873 H   0  0  0  0  0  0  0  0  0  0  0  0
  -15.3663   -0.9987  -11.5617 H   0  0  0  0  0  0  0  0  0  0  0  0
  -12.1720   -7.0000  -11.1076 C   0  0  0  0  0  0  0  0  0  0  0  0
  -13.4768   -6.5637  -11.7055 C   0  0  0  0  0  0  0  0  0  0  0  0
  -14.2606   -7.4746  -12.4232 C   0  0  0  0  0  0  0  0  0  0  0  0
  -15.4847   -7.0776  -12.9445 C   0  0  0  0  0  0  0  0  0  0  0  0
  -15.9230   -5.7678  -12.7761 C   0  0  0  0  0  0  0  0  0  0  0  0
  -17.1700   -5.5029  -13.1853 F   0  0  0  0  0  0  0  0  0  0  0  0
  -15.1303   -4.8119  -12.1220 C   0  0  0  0  0  0  0  0  0  0  0  0
  -13.9198   -5.2371  -11.5551 C   0  0  0  0  0  0  0  0  0  0  0  0
  -13.5872    1.8662  -18.2767 C   0  0  0  0  0  0  0  0  0  0  0  0
  -14.2065    0.6874  -18.5910 N   0  0  0  0  0  0  0  0  0  0  0  0
  -12.3929    2.0018  -18.5382 O   0  0  0  0  0  0  0  0  0  0  0  0
  -15.2017    0.5365  -18.5094 H   0  0  0  0  0  0  0  0  0  0  0  0
  -13.6434   -0.0489  -18.9949 H   0  0  0  0  0  0  0  0  0  0  0  0
  -13.8222    4.7080  -19.3088 N   0  0  0  0  0  0  0  0  0  0  0  0
  -13.7092    4.0893  -20.1117 H   0  0  0  0  0  0  0  0  0  0  0  0
  -12.8954    5.8147  -19.1455 C   0  0  0  0  0  0  0  0  0  0  0  0
  -11.5650    5.4027  -18.5255 C   0  0  0  0  0  0  0  0  0  0  0  0
  -11.1329    6.3624  -17.4177 C   0  0  0  0  0  0  0  0  0  0  0  0
  -12.2439    6.7749  -16.5434 N   0  0  0  0  0  0  0  0  0  0  0  0
  -12.0640    8.1051  -15.9186 C   0  0  0  0  0  0  0  0  0  0  0  0
  -10.9934    8.1486  -14.8148 C   0  0  0  0  0  0  0  0  0  0  0  0
  -11.2326    7.1610  -13.8039 O   0  0  0  0  0  0  0  0  0  0  0  0
  -11.3290    5.8513  -14.3771 C   0  0  0  0  0  0  0  0  0  0  0  0
  -12.4303    5.7910  -15.4500 C   0  0  0  0  0  0  0  0  0  0  0  0
 18 19  1  0  0  0
 19 20  1  0  0  0
 19 25  2  0  0  0
 20 21  2  0  0  0
 21 22  1  0  0  0
 22 23  1  0  0  0
 22 24  2  0  0  0
 24 12  1  0  0  0
 24 25  1  0  0  0
 12 13  1  0  0  0
 12 16  1  0  0  0
 13 14  2  0  0  0
 13 15  1  0  0  0
 15  6  1  0  0  0
 15 17  1  0  0  0
  6  7  1  0  0  0
  6 11  2  0  0  0
  7  8  2  0  0  0
  8  9  1  0  0  0
  9  1  1  0  0  0
  9 10  2  0  0  0
  1  2  1  0  0  0
  1  5  2  0  0  0
  2  3  1  0  0  0
  3  4  2  0  0  0
  4 31  1  0  0  0
  4  5  1  0  0  0
 31 33  1  0  0  0
 31 32  1  0  0  0
 33 34  1  0  0  0
 34 35  1  0  0  0
 35 36  1  0  0  0
 36 37  1  0  0  0
 36 41  1  0  0  0
 37 38  1  0  0  0
 38 39  1  0  0  0
 39 40  1  0  0  0
 40 41  1  0  0  0
  5 26  1  0  0  0
 26 27  1  0  0  0
 26 28  2  0  0  0
 27 29  1  0  0  0
 27 30  1  0  0  0
 10 11  1  0  0  0
M  END
> <minimizedAffinity>
-6.53005

$$$$
