CHEMBL3671561


 35 38  0  0  0  0  0  0  0  0999 V2000
  -17.9053    0.9574  -15.0543 C   0  0  0  0  0  0  0  0  0  0  0  0
  -19.2176    0.5272  -14.8140 C   0  0  0  0  0  0  0  0  0  0  0  0
  -20.2733    1.4397  -14.6366 C   0  0  0  0  0  0  0  0  0  0  0  0
  -21.5886    1.0898  -14.3022 C   0  0  0  0  0  0  0  0  0  0  0  0
  -22.5594    2.0092  -14.1668 N   0  0  0  0  0  0  0  0  0  0  0  0
  -22.1987    3.2851  -14.3278 C   0  0  0  0  0  0  0  0  0  0  0  0
  -20.9768    3.7253  -14.6447 N   0  0  0  0  0  0  0  0  0  0  0  0
  -20.0299    2.7975  -14.7980 C   0  0  0  0  0  0  0  0  0  0  0  0
  -18.7463    3.2071  -15.1287 C   0  0  0  0  0  0  0  0  0  0  0  0
  -17.6585    2.3224  -15.2617 C   0  0  0  0  0  0  0  0  0  0  0  0
  -16.1377   -0.1575  -13.8285 C   0  0  0  0  0  0  0  0  0  0  0  0
  -16.2797    0.5229  -12.8154 O   0  0  0  0  0  0  0  0  0  0  0  0
  -16.8857   -0.0233  -14.9949 N   0  0  0  0  0  0  0  0  0  0  0  0
  -16.5188   -0.3833  -15.8657 H   0  0  0  0  0  0  0  0  0  0  0  0
  -14.9970   -2.1395  -12.9755 C   0  0  0  0  0  0  0  0  0  0  0  0
  -15.0593   -1.1733  -13.9067 C   0  0  0  0  0  0  0  0  0  0  0  0
  -21.9000   -0.2672  -14.0965 N   0  0  0  0  0  0  0  0  0  0  0  0
  -21.0789   -0.8666  -14.1396 H   0  0  0  0  0  0  0  0  0  0  0  0
  -22.9742   -0.8172  -13.3751 C   0  0  0  0  0  0  0  0  0  0  0  0
  -22.8584   -1.1508  -12.0211 C   0  0  0  0  0  0  0  0  0  0  0  0
  -23.9854   -1.4899  -11.2714 C   0  0  0  0  0  0  0  0  0  0  0  0
  -25.2397   -1.5188  -11.8806 C   0  0  0  0  0  0  0  0  0  0  0  0
  -26.7772   -1.8386  -10.8320 Br  0  0  0  0  0  0  0  0  0  0  0  0
  -25.3711   -1.2651  -13.2403 C   0  0  0  0  0  0  0  0  0  0  0  0
  -24.2385   -0.9127  -13.9715 C   0  0  0  0  0  0  0  0  0  0  0  0
  -24.3735   -0.6281  -15.2772 F   0  0  0  0  0  0  0  0  0  0  0  0
  -16.3639    2.7620  -15.5028 O   0  0  0  0  0  0  0  0  0  0  0  0
  -16.2839    4.1505  -15.8929 C   0  0  0  0  0  0  0  0  0  0  0  0
  -14.9213    4.5697  -16.4473 C   0  0  0  0  0  0  0  0  0  0  0  0
  -14.1537    3.4540  -17.1218 C   0  0  0  0  0  0  0  0  0  0  0  0
  -13.3422    2.9601  -16.0629 N   0  0  0  0  0  0  0  0  0  0  0  0
  -13.1994    3.9138  -15.1012 C   0  0  0  0  0  0  0  0  0  0  0  0
  -12.4050    3.8740  -14.1650 O   0  0  0  0  0  0  0  0  0  0  0  0
  -14.0711    4.9432  -15.3386 O   0  0  0  0  0  0  0  0  0  0  0  0
  -12.6346    2.2349  -16.1358 H   0  0  0  0  0  0  0  0  0  0  0  0
 15 16  2  0  0  0
 16 11  1  0  0  0
 11 12  2  0  0  0
 11 13  1  0  0  0
 13  1  1  0  0  0
 13 14  1  0  0  0
  1  2  1  0  0  0
  1 10  2  0  0  0
  2  3  2  0  0  0
  3  4  1  0  0  0
  3  8  1  0  0  0
  4 17  1  0  0  0
  4  5  2  0  0  0
 17 19  1  0  0  0
 17 18  1  0  0  0
 19 20  1  0  0  0
 19 25  2  0  0  0
 20 21  2  0  0  0
 21 22  1  0  0  0
 22 23  1  0  0  0
 22 24  2  0  0  0
 24 25  1  0  0  0
 25 26  1  0  0  0
  5  6  1  0  0  0
  6  7  2  0  0  0
  7  8  1  0  0  0
  8  9  2  0  0  0
  9 10  1  0  0  0
 10 27  1  0  0  0
 27 28  1  0  0  0
 28 29  1  0  0  0
 29 30  1  0  0  0
 29 34  1  0  0  0
 30 31  1  0  0  0
 31 32  1  0  0  0
 31 35  1  0  0  0
 32 33  2  0  0  0
 32 34  1  0  0  0
M  END
> <minimizedAffinity>
-9.99482

$$$$
