CHEMBL2335013


 33 36  0  0  0  0  0  0  0  0999 V2000
  -31.2561   -4.5257   -3.1388 N   0  0  0  0  0  0  0  0  0  0  0  0
  -30.6106   -4.4430   -4.3590 C   0  0  0  0  0  0  0  0  0  0  0  0
  -30.7363   -5.5038   -5.1641 N   0  0  0  0  0  0  0  0  0  0  0  0
  -30.1309   -5.5176   -6.3825 C   0  0  0  0  0  0  0  0  0  0  0  0
  -29.4015   -4.3829   -6.7543 C   0  0  0  0  0  0  0  0  0  0  0  0
  -28.6326   -3.9633   -7.8753 C   0  0  0  0  0  0  0  0  0  0  0  0
  -28.2309   -2.6569   -7.6529 C   0  0  0  0  0  0  0  0  0  0  0  0
  -28.6490   -2.3222   -6.3832 N   0  0  0  0  0  0  0  0  0  0  0  0
  -29.3727   -3.3464   -5.8404 C   0  0  0  0  0  0  0  0  0  0  0  0
  -29.9553   -3.3121   -4.6352 N   0  0  0  0  0  0  0  0  0  0  0  0
  -32.0141   -5.1892   -3.2092 H   0  0  0  0  0  0  0  0  0  0  0  0
  -31.4723   -3.6031   -2.7921 H   0  0  0  0  0  0  0  0  0  0  0  0
  -28.5020   -1.4448   -5.9072 H   0  0  0  0  0  0  0  0  0  0  0  0
  -30.2804   -6.6198   -7.2348 N   0  0  0  0  0  0  0  0  0  0  0  0
  -30.9421   -6.4932   -7.9855 H   0  0  0  0  0  0  0  0  0  0  0  0
  -29.4205   -7.7193   -7.3773 C   0  0  0  0  0  0  0  0  0  0  0  0
  -28.6713   -8.1598   -6.2847 C   0  0  0  0  0  0  0  0  0  0  0  0
  -27.7573   -9.2100   -6.4227 C   0  0  0  0  0  0  0  0  0  0  0  0
  -27.5853   -9.8293   -7.6600 C   0  0  0  0  0  0  0  0  0  0  0  0
  -28.3186   -9.4030   -8.7727 C   0  0  0  0  0  0  0  0  0  0  0  0
  -29.2275   -8.3447   -8.6141 C   0  0  0  0  0  0  0  0  0  0  0  0
  -28.1685  -10.0376  -10.1288 C   0  0  0  0  0  0  0  0  0  0  0  0
  -29.2628   -9.8779  -10.9263 F   0  0  0  0  0  0  0  0  0  0  0  0
  -27.1214   -9.5241  -10.8332 F   0  0  0  0  0  0  0  0  0  0  0  0
  -27.9535  -11.3804  -10.0630 F   0  0  0  0  0  0  0  0  0  0  0  0
  -27.5502   -1.6980   -8.5866 C   0  0  0  0  0  0  0  0  0  0  0  0
  -27.9424   -1.8745  -10.0557 C   0  0  0  0  0  0  0  0  0  0  0  0
  -26.8057   -1.7108  -11.0379 C   0  0  0  0  0  0  0  0  0  0  0  0
  -27.0948   -1.7302  -12.4017 C   0  0  0  0  0  0  0  0  0  0  0  0
  -26.0544   -1.6073  -13.3161 C   0  0  0  0  0  0  0  0  0  0  0  0
  -24.7539   -1.4683  -12.8512 C   0  0  0  0  0  0  0  0  0  0  0  0
  -24.5494   -1.4583  -11.4812 C   0  0  0  0  0  0  0  0  0  0  0  0
  -25.5422   -1.5780  -10.5695 N   0  0  0  0  0  0  0  0  0  0  0  0
  1  2  1  0  0  0
  1 11  1  0  0  0
  1 12  1  0  0  0
  2  3  1  0  0  0
  2 10  2  0  0  0
  3  4  2  0  0  0
  4 14  1  0  0  0
  4  5  1  0  0  0
 14 16  1  0  0  0
 14 15  1  0  0  0
 16 17  1  0  0  0
 16 21  2  0  0  0
 17 18  2  0  0  0
 18 19  1  0  0  0
 19 20  2  0  0  0
 20 22  1  0  0  0
 20 21  1  0  0  0
 22 23  1  0  0  0
 22 24  1  0  0  0
 22 25  1  0  0  0
  5  6  1  0  0  0
  5  9  2  0  0  0
  6  7  2  0  0  0
  7 26  1  0  0  0
  7  8  1  0  0  0
 26 27  1  0  0  0
 27 28  1  0  0  0
 28 29  1  0  0  0
 28 33  2  0  0  0
 29 30  2  0  0  0
 30 31  1  0  0  0
 31 32  2  0  0  0
 32 33  1  0  0  0
  8  9  1  0  0  0
  8 13  1  0  0  0
  9 10  1  0  0  0
M  END
> <minimizedAffinity>
-9.25016

$$$$
