CHEMBL259084


 36 40  0  0  0  0  0  0  0  0999 V2000
  -12.1233   -1.5564  -13.1833 C   0  0  0  0  0  0  0  0  0  0  0  0
  -11.5195   -0.5497  -12.5278 N   0  0  0  0  0  0  0  0  0  0  0  0
  -11.4226    0.6284  -13.1668 C   0  0  0  0  0  0  0  0  0  0  0  0
  -11.9178    0.8197  -14.4262 C   0  0  0  0  0  0  0  0  0  0  0  0
  -12.3356   -0.3111  -15.0960 C   0  0  0  0  0  0  0  0  0  0  0  0
  -12.4405   -1.5140  -14.4921 N   0  0  0  0  0  0  0  0  0  0  0  0
  -12.8235   -0.1687  -16.4756 C   0  0  0  0  0  0  0  0  0  0  0  0
  -12.0566   -0.6363  -17.5601 C   0  0  0  0  0  0  0  0  0  0  0  0
  -12.4146   -0.3241  -18.8783 C   0  0  0  0  0  0  0  0  0  0  0  0
  -13.5774    0.3979  -19.1354 C   0  0  0  0  0  0  0  0  0  0  0  0
  -14.0144    0.7860  -20.7532 Cl  0  0  0  0  0  0  0  0  0  0  0  0
  -14.3467    0.8839  -18.0870 C   0  0  0  0  0  0  0  0  0  0  0  0
  -13.9320    0.6540  -16.7662 C   0  0  0  0  0  0  0  0  0  0  0  0
  -14.5109    1.5527  -15.7098 C   0  0  0  0  0  0  0  0  0  0  0  0
  -13.7712    2.2734  -14.9232 N   0  0  0  0  0  0  0  0  0  0  0  0
  -12.3014    2.1605  -14.9690 C   0  0  0  0  0  0  0  0  0  0  0  0
  -15.9976    1.6999  -15.6332 C   0  0  0  0  0  0  0  0  0  0  0  0
  -16.6624    2.8168  -16.1465 C   0  0  0  0  0  0  0  0  0  0  0  0
  -16.0063    3.7579  -16.8374 F   0  0  0  0  0  0  0  0  0  0  0  0
  -18.0318    3.0004  -15.9376 C   0  0  0  0  0  0  0  0  0  0  0  0
  -18.7622    2.0503  -15.2298 C   0  0  0  0  0  0  0  0  0  0  0  0
  -18.1217    0.9069  -14.7557 C   0  0  0  0  0  0  0  0  0  0  0  0
  -16.7519    0.7351  -14.9595 C   0  0  0  0  0  0  0  0  0  0  0  0
  -16.1851   -0.3586  -14.4333 F   0  0  0  0  0  0  0  0  0  0  0  0
  -12.5424   -2.5946  -12.3520 N   0  0  0  0  0  0  0  0  0  0  0  0
  -12.1731   -2.4372  -11.4256 H   0  0  0  0  0  0  0  0  0  0  0  0
  -14.4690   -6.2571  -13.1447 C   0  0  0  0  0  0  0  0  0  0  0  0
  -15.2031   -5.0685  -13.1374 C   0  0  0  0  0  0  0  0  0  0  0  0
  -14.5806   -3.8563  -12.8370 C   0  0  0  0  0  0  0  0  0  0  0  0
  -13.2059   -3.7987  -12.5821 C   0  0  0  0  0  0  0  0  0  0  0  0
  -12.4923   -5.0044  -12.5333 C   0  0  0  0  0  0  0  0  0  0  0  0
  -13.1123   -6.2324  -12.8249 C   0  0  0  0  0  0  0  0  0  0  0  0
  -14.8522   -8.6108  -13.1469 O   0  0  0  0  0  0  0  0  0  0  0  0
  -15.1654   -7.4955  -13.5517 C   0  0  0  0  0  0  0  0  0  0  0  0
  -16.1630   -7.2919  -14.4402 O   0  0  0  0  0  0  0  0  0  0  0  0
  -16.1828   -6.3938  -14.8211 H   0  0  0  0  0  0  0  0  0  0  0  0
 33 34  2  0  0  0
 34 35  1  0  0  0
 34 27  1  0  0  0
 35 36  1  0  0  0
 27 28  1  0  0  0
 27 32  2  0  0  0
 28 29  2  0  0  0
 29 30  1  0  0  0
 30 25  1  0  0  0
 30 31  2  0  0  0
 25  1  1  0  0  0
 25 26  1  0  0  0
  1  2  1  0  0  0
  1  6  2  0  0  0
  2  3  2  0  0  0
  3  4  1  0  0  0
  4  5  2  0  0  0
  4 16  1  0  0  0
  5  6  1  0  0  0
  5  7  1  0  0  0
  7  8  1  0  0  0
  7 13  2  0  0  0
  8  9  2  0  0  0
  9 10  1  0  0  0
 10 11  1  0  0  0
 10 12  2  0  0  0
 12 13  1  0  0  0
 13 14  1  0  0  0
 14 17  1  0  0  0
 14 15  2  0  0  0
 17 18  1  0  0  0
 17 23  2  0  0  0
 18 19  1  0  0  0
 18 20  2  0  0  0
 20 21  1  0  0  0
 21 22  2  0  0  0
 22 23  1  0  0  0
 23 24  1  0  0  0
 15 16  1  0  0  0
 31 32  1  0  0  0
M  END
> <minimizedAffinity>
-8.57602

$$$$
