CHEMBL204710


 31 35  0  0  0  0  0  0  0  0999 V2000
  -15.5899   -2.0161  -12.7544 C   0  0  0  0  0  0  0  0  0  0  0  0
  -15.3166   -1.0294  -11.9257 N   0  0  0  0  0  0  0  0  0  0  0  0
  -15.4429    0.1263  -12.6524 N   0  0  0  0  0  0  0  0  0  0  0  0
  -15.7895   -0.2170  -13.8716 C   0  0  0  0  0  0  0  0  0  0  0  0
  -15.8490   -1.5800  -14.0268 O   0  0  0  0  0  0  0  0  0  0  0  0
  -16.5495   -5.5809  -13.2495 C   0  0  0  0  0  0  0  0  0  0  0  0
  -15.9945   -6.1372  -12.1215 C   0  0  0  0  0  0  0  0  0  0  0  0
  -15.3826   -5.4190  -11.1524 N   0  0  0  0  0  0  0  0  0  0  0  0
  -15.2597   -4.0736  -11.2978 C   0  0  0  0  0  0  0  0  0  0  0  0
  -15.7392   -3.4302  -12.4514 C   0  0  0  0  0  0  0  0  0  0  0  0
  -16.4258   -4.2098  -13.4068 C   0  0  0  0  0  0  0  0  0  0  0  0
  -14.5500   -3.3867  -10.2902 N   0  0  0  0  0  0  0  0  0  0  0  0
  -14.8740   -3.6584   -9.3652 H   0  0  0  0  0  0  0  0  0  0  0  0
  -13.1011   -3.5526  -10.4087 C   0  0  0  0  0  0  0  0  0  0  0  0
  -12.4878   -3.8910   -9.0682 C   0  0  0  0  0  0  0  0  0  0  0  0
  -11.7537   -2.9479   -8.3386 C   0  0  0  0  0  0  0  0  0  0  0  0
  -11.2994   -3.2907   -7.0732 C   0  0  0  0  0  0  0  0  0  0  0  0
  -11.5172   -4.4909   -6.4957 N   0  0  0  0  0  0  0  0  0  0  0  0
  -12.2250   -5.3879   -7.2145 C   0  0  0  0  0  0  0  0  0  0  0  0
  -12.7190   -5.1404   -8.4862 C   0  0  0  0  0  0  0  0  0  0  0  0
  -16.1603    0.5081  -14.9439 N   0  0  0  0  0  0  0  0  0  0  0  0
  -15.8677    0.1567  -15.8456 H   0  0  0  0  0  0  0  0  0  0  0  0
  -17.2803    1.3716  -14.9823 C   0  0  0  0  0  0  0  0  0  0  0  0
  -17.1556    2.6138  -15.6499 C   0  0  0  0  0  0  0  0  0  0  0  0
  -18.2426    3.4937  -15.7662 C   0  0  0  0  0  0  0  0  0  0  0  0
  -19.4345    3.1200  -15.1909 C   0  0  0  0  0  0  0  0  0  0  0  0
  -19.5638    1.9290  -14.5233 C   0  0  0  0  0  0  0  0  0  0  0  0
  -18.5130    1.0454  -14.3998 C   0  0  0  0  0  0  0  0  0  0  0  0
  -20.8130    1.7413  -14.0221 O   0  0  0  0  0  0  0  0  0  0  0  0
  -21.4389    2.9845  -14.3950 C   0  0  0  0  0  0  0  0  0  0  0  0
  -20.5897    3.8348  -15.1961 O   0  0  0  0  0  0  0  0  0  0  0  0
  6  7  1  0  0  0
  6 11  2  0  0  0
  7  8  2  0  0  0
  8  9  1  0  0  0
  9 12  1  0  0  0
  9 10  2  0  0  0
 12 14  1  0  0  0
 12 13  1  0  0  0
 14 15  1  0  0  0
 15 16  1  0  0  0
 15 20  2  0  0  0
 16 17  2  0  0  0
 17 18  1  0  0  0
 18 19  2  0  0  0
 19 20  1  0  0  0
 10  1  1  0  0  0
 10 11  1  0  0  0
  1  2  2  0  0  0
  1  5  1  0  0  0
  2  3  1  0  0  0
  3  4  2  0  0  0
  4 21  1  0  0  0
  4  5  1  0  0  0
 21 23  1  0  0  0
 21 22  1  0  0  0
 23 24  1  0  0  0
 23 28  2  0  0  0
 24 25  2  0  0  0
 25 26  1  0  0  0
 26 27  2  0  0  0
 26 31  1  0  0  0
 27 28  1  0  0  0
 27 29  1  0  0  0
 29 30  1  0  0  0
 30 31  1  0  0  0
M  END
> <minimizedAffinity>
-9.30232

$$$$
