CHEMBL3891736


 39 43  0  0  0  0  0  0  0  0999 V2000
  -15.3626    2.3838  -15.6819 N   0  0  0  0  0  0  0  0  0  0  0  0
  -16.7878    2.3487  -15.2628 C   0  0  0  0  0  0  0  0  0  0  0  0
  -17.2106    1.1506  -14.7599 C   0  0  0  0  0  0  0  0  0  0  0  0
  -18.5358    1.0336  -14.5432 C   0  0  0  0  0  0  0  0  0  0  0  0
  -19.4769    1.9911  -14.8965 C   0  0  0  0  0  0  0  0  0  0  0  0
  -20.3954    1.2512  -15.4035 N   0  0  0  0  0  0  0  0  0  0  0  0
  -21.2370    0.8831  -14.4995 C   0  0  0  0  0  0  0  0  0  0  0  0
  -22.1028    1.7919  -14.1542 C   0  0  0  0  0  0  0  0  0  0  0  0
  -21.3100    3.1670  -14.5029 N   0  0  0  0  0  0  0  0  0  0  0  0
  -19.5613    3.2976  -14.9298 C   0  0  0  0  0  0  0  0  0  0  0  0
  -17.8581    3.3996  -15.3408 C   0  0  0  0  0  0  0  0  0  0  0  0
  -23.4790    0.6805  -13.7872 C   0  0  0  0  0  0  0  0  0  0  0  0
  -24.0588   -0.6520  -14.2968 C   0  0  0  0  0  0  0  0  0  0  0  0
  -24.8021   -1.4055  -13.4239 N   0  0  0  0  0  0  0  0  0  0  0  0
  -24.7100   -0.7969  -12.2324 N   0  0  0  0  0  0  0  0  0  0  0  0
  -25.3737   -1.3861  -11.0158 C   0  0  0  0  0  0  0  0  0  0  0  0
  -23.8787    0.3640  -12.3995 C   0  0  0  0  0  0  0  0  0  0  0  0
  -14.5330    4.9904  -18.4756 C   0  0  0  0  0  0  0  0  0  0  0  0
  -13.5808    5.7028  -17.8511 C   0  0  0  0  0  0  0  0  0  0  0  0
  -13.1793    5.3381  -16.5630 C   0  0  0  0  0  0  0  0  0  0  0  0
  -13.7286    4.2295  -15.8926 C   0  0  0  0  0  0  0  0  0  0  0  0
  -14.7476    3.4767  -16.4566 C   0  0  0  0  0  0  0  0  0  0  0  0
  -14.9964    3.8785  -17.8092 C   0  0  0  0  0  0  0  0  0  0  0  0
  -15.1193    6.6520  -20.0171 C   0  0  0  0  0  0  0  0  0  0  0  0
  -15.1664    5.2880  -19.6456 O   0  0  0  0  0  0  0  0  0  0  0  0
  -12.2622    6.0666  -15.8558 O   0  0  0  0  0  0  0  0  0  0  0  0
  -11.7105    5.3522  -14.7531 C   0  0  0  0  0  0  0  0  0  0  0  0
  -14.9069    0.9703  -15.9600 C   0  0  0  0  0  0  0  0  0  0  0  0
  -13.7873    0.4931  -15.0411 C   0  0  0  0  0  0  0  0  0  0  0  0
  -13.7261   -1.0862  -14.9843 C   0  0  0  0  0  0  0  0  0  0  0  0
  -14.8424   -1.6228  -14.1199 C   0  0  0  0  0  0  0  0  0  0  0  0
  -14.7178   -1.0035  -12.8040 N   0  0  0  0  0  0  0  0  0  0  0  0
  -14.8133    0.4601  -12.8721 C   0  0  0  0  0  0  0  0  0  0  0  0
  -13.7041    1.0440  -13.6615 C   0  0  0  0  0  0  0  0  0  0  0  0
  -15.7805   -1.5046  -11.9182 C   0  0  0  0  0  0  0  0  0  0  0  0
  -15.4129   -2.8142  -11.2081 C   0  0  0  0  0  0  0  0  0  0  0  0
  -15.5313   -2.6847   -9.8678 F   0  0  0  0  0  0  0  0  0  0  0  0
  -16.1895   -3.8518  -11.5963 F   0  0  0  0  0  0  0  0  0  0  0  0
  -14.1443   -3.1686  -11.4921 F   0  0  0  0  0  0  0  0  0  0  0  0
 24 25  1  0  0  0
 25 18  1  0  0  0
 18 19  1  0  0  0
 18 23  2  0  0  0
 19 20  2  0  0  0
 20 26  1  0  0  0
 20 21  1  0  0  0
 26 27  1  0  0  0
 21 22  2  0  0  0
 22  1  1  0  0  0
 22 23  1  0  0  0
  1 28  1  0  0  0
  1  2  1  0  0  0
 28 29  1  0  0  0
 29 30  1  0  0  0
 29 34  1  0  0  0
 30 31  1  0  0  0
 31 32  1  0  0  0
 32 35  1  0  0  0
 32 33  1  0  0  0
 35 36  1  0  0  0
 36 37  1  0  0  0
 36 38  1  0  0  0
 36 39  1  0  0  0
 33 34  1  0  0  0
  2  3  1  0  0  0
  2 11  2  0  0  0
  3  4  2  0  0  0
  4  5  1  0  0  0
  5  6  1  0  0  0
  5 10  2  0  0  0
  6  7  2  0  0  0
  7  8  1  0  0  0
  8 12  1  0  0  0
  8  9  2  0  0  0
 12 13  1  0  0  0
 12 17  2  0  0  0
 13 14  2  0  0  0
 14 15  1  0  0  0
 15 16  1  0  0  0
 15 17  1  0  0  0
  9 10  1  0  0  0
 10 11  1  0  0  0
M  END
> <minimizedAffinity>
-9.54028

$$$$
