CHEMBL3979437


 46 50  0  0  0  0  0  0  0  0999 V2000
  -15.8773    2.8904  -15.8614 N   0  0  0  0  0  0  0  0  0  0  0  0
  -17.0014    2.5130  -15.1443 C   0  0  0  0  0  0  0  0  0  0  0  0
  -17.0021    2.1959  -13.9581 O   0  0  0  0  0  0  0  0  0  0  0  0
  -18.1652    2.4905  -15.9018 N   0  0  0  0  0  0  0  0  0  0  0  0
  -16.0247    3.2783  -16.7828 H   0  0  0  0  0  0  0  0  0  0  0  0
  -18.0486    2.1421  -16.8426 H   0  0  0  0  0  0  0  0  0  0  0  0
  -19.3884    2.1734  -15.2472 C   0  0  0  0  0  0  0  0  0  0  0  0
  -19.8678    0.8548  -15.2309 C   0  0  0  0  0  0  0  0  0  0  0  0
  -21.1314    0.5536  -14.7170 C   0  0  0  0  0  0  0  0  0  0  0  0
  -21.9107    1.5598  -14.1441 C   0  0  0  0  0  0  0  0  0  0  0  0
  -21.4262    2.8721  -14.1628 C   0  0  0  0  0  0  0  0  0  0  0  0
  -22.1863    3.8731  -13.6933 F   0  0  0  0  0  0  0  0  0  0  0  0
  -20.1654    3.1846  -14.6868 C   0  0  0  0  0  0  0  0  0  0  0  0
  -23.1689    1.3392  -13.6139 O   0  0  0  0  0  0  0  0  0  0  0  0
  -23.4664    0.1060  -13.0598 C   0  0  0  0  0  0  0  0  0  0  0  0
  -22.7984   -1.0645  -13.3982 C   0  0  0  0  0  0  0  0  0  0  0  0
  -23.2250   -2.2393  -12.8229 C   0  0  0  0  0  0  0  0  0  0  0  0
  -24.2066   -2.2982  -11.9091 N   0  0  0  0  0  0  0  0  0  0  0  0
  -24.8043   -1.1621  -11.5127 C   0  0  0  0  0  0  0  0  0  0  0  0
  -24.4626    0.0688  -12.0732 C   0  0  0  0  0  0  0  0  0  0  0  0
  -25.7905   -1.2227  -10.5053 N   0  0  0  0  0  0  0  0  0  0  0  0
  -27.1100   -1.5585  -10.7517 C   0  0  0  0  0  0  0  0  0  0  0  0
  -27.6143   -1.8339  -11.8291 O   0  0  0  0  0  0  0  0  0  0  0  0
  -25.5044   -1.0385   -9.5622 H   0  0  0  0  0  0  0  0  0  0  0  0
  -28.0328   -1.6061   -9.5744 C   0  0  0  0  0  0  0  0  0  0  0  0
  -27.6724   -1.4863   -8.1212 C   0  0  0  0  0  0  0  0  0  0  0  0
  -28.0481   -2.8260   -8.6872 C   0  0  0  0  0  0  0  0  0  0  0  0
  -12.6413    1.7745  -14.3308 C   0  0  0  0  0  0  0  0  0  0  0  0
  -13.9529    1.7774  -14.7930 C   0  0  0  0  0  0  0  0  0  0  0  0
  -14.5524    2.9120  -15.3391 C   0  0  0  0  0  0  0  0  0  0  0  0
  -13.8096    4.0982  -15.3696 C   0  0  0  0  0  0  0  0  0  0  0  0
  -12.4947    4.1398  -14.8487 C   0  0  0  0  0  0  0  0  0  0  0  0
  -11.9106    2.9628  -14.3512 C   0  0  0  0  0  0  0  0  0  0  0  0
  -11.7037    5.4249  -14.7771 C   0  0  0  0  0  0  0  0  0  0  0  0
  -10.7470    5.5261  -15.7404 F   0  0  0  0  0  0  0  0  0  0  0  0
  -12.4944    6.5244  -14.9203 F   0  0  0  0  0  0  0  0  0  0  0  0
  -11.0584    5.5782  -13.5888 F   0  0  0  0  0  0  0  0  0  0  0  0
  -12.0246    0.5256  -13.7990 C   0  0  0  0  0  0  0  0  0  0  0  0
  -11.9078    0.4266  -12.5786 O   0  0  0  0  0  0  0  0  0  0  0  0
  -13.7081   -3.8201  -12.9393 C   0  0  0  0  0  0  0  0  0  0  0  0
  -12.8508   -3.0870  -13.8741 N   0  0  0  0  0  0  0  0  0  0  0  0
  -13.6403   -2.0566  -14.5658 C   0  0  0  0  0  0  0  0  0  0  0  0
  -12.7786   -1.2104  -15.5061 C   0  0  0  0  0  0  0  0  0  0  0  0
  -11.5839   -0.5840  -14.7774 C   0  0  0  0  0  0  0  0  0  0  0  0
  -10.8037   -1.7099  -14.0860 C   0  0  0  0  0  0  0  0  0  0  0  0
  -11.7039   -2.5220  -13.1565 C   0  0  0  0  0  0  0  0  0  0  0  0
 40 41  1  0  0  0
 41 42  1  0  0  0
 41 46  1  0  0  0
 42 43  1  0  0  0
 43 44  1  0  0  0
 44 38  1  0  0  0
 44 45  1  0  0  0
 38 39  2  0  0  0
 38 28  1  0  0  0
 28 29  1  0  0  0
 28 33  2  0  0  0
 29 30  2  0  0  0
 30  1  1  0  0  0
 30 31  1  0  0  0
  1  2  1  0  0  0
  1  5  1  0  0  0
  2  3  2  0  0  0
  2  4  1  0  0  0
  4  7  1  0  0  0
  4  6  1  0  0  0
  7  8  1  0  0  0
  7 13  2  0  0  0
  8  9  2  0  0  0
  9 10  1  0  0  0
 10 14  1  0  0  0
 10 11  2  0  0  0
 14 15  1  0  0  0
 15 16  1  0  0  0
 15 20  2  0  0  0
 16 17  2  0  0  0
 17 18  1  0  0  0
 18 19  2  0  0  0
 19 21  1  0  0  0
 19 20  1  0  0  0
 21 22  1  0  0  0
 21 24  1  0  0  0
 22 23  2  0  0  0
 22 25  1  0  0  0
 25 26  1  0  0  0
 25 27  1  0  0  0
 26 27  1  0  0  0
 11 12  1  0  0  0
 11 13  1  0  0  0
 31 32  2  0  0  0
 32 34  1  0  0  0
 32 33  1  0  0  0
 34 35  1  0  0  0
 34 36  1  0  0  0
 34 37  1  0  0  0
 45 46  1  0  0  0
M  END
> <minimizedAffinity>
-10.22840

$$$$
