CHEMBL4453627


 24 27  0  0  0  0  0  0  0  0999 V2000
  -22.3390    0.6479  -13.8379 C   0  0  0  0  0  0  0  0  0  0  0  0
  -22.3156    0.0869  -12.5540 C   0  0  0  0  0  0  0  0  0  0  0  0
  -23.2563   -0.8766  -12.1740 C   0  0  0  0  0  0  0  0  0  0  0  0
  -24.2441   -1.3005  -13.0722 C   0  0  0  0  0  0  0  0  0  0  0  0
  -24.2767   -0.7321  -14.3526 C   0  0  0  0  0  0  0  0  0  0  0  0
  -23.3300    0.2269  -14.7330 C   0  0  0  0  0  0  0  0  0  0  0  0
  -18.1720    2.8604  -15.4045 C   0  0  0  0  0  0  0  0  0  0  0  0
  -19.5040    2.6098  -14.9102 N   0  0  0  0  0  0  0  0  0  0  0  0
  -20.1138    1.3968  -14.7597 C   0  0  0  0  0  0  0  0  0  0  0  0
  -21.3543    1.6507  -14.2088 C   0  0  0  0  0  0  0  0  0  0  0  0
  -21.3858    3.0604  -14.0854 C   0  0  0  0  0  0  0  0  0  0  0  0
  -20.2629    3.6449  -14.5105 N   0  0  0  0  0  0  0  0  0  0  0  0
  -25.2469   -2.3545  -12.6766 C   0  0  0  0  0  0  0  0  0  0  0  0
  -26.1501   -1.9017  -11.6350 N   0  0  0  0  0  0  0  0  0  0  0  0
  -26.2148   -2.3378  -10.3430 C   0  0  0  0  0  0  0  0  0  0  0  0
  -27.3683   -1.7623   -9.8560 C   0  0  0  0  0  0  0  0  0  0  0  0
  -27.9500   -1.0148  -10.8467 N   0  0  0  0  0  0  0  0  0  0  0  0
  -27.1920   -1.1024  -11.9336 N   0  0  0  0  0  0  0  0  0  0  0  0
  -27.9318   -1.9527   -8.5330 C   0  0  0  0  0  0  0  0  0  0  0  0
  -27.8589   -0.9473   -7.5584 C   0  0  0  0  0  0  0  0  0  0  0  0
  -28.3991   -1.1503   -6.2858 C   0  0  0  0  0  0  0  0  0  0  0  0
  -29.0141   -2.3606   -5.9734 C   0  0  0  0  0  0  0  0  0  0  0  0
  -29.0942   -3.3675   -6.9331 C   0  0  0  0  0  0  0  0  0  0  0  0
  -28.5598   -3.1631   -8.2087 C   0  0  0  0  0  0  0  0  0  0  0  0
  7  8  1  0  0  0
  8  9  1  0  0  0
  8 12  1  0  0  0
  9 10  2  0  0  0
 10  1  1  0  0  0
 10 11  1  0  0  0
  1  2  1  0  0  0
  1  6  2  0  0  0
  2  3  2  0  0  0
  3  4  1  0  0  0
  4 13  1  0  0  0
  4  5  2  0  0  0
 13 14  1  0  0  0
 14 15  1  0  0  0
 14 18  1  0  0  0
 15 16  2  0  0  0
 16 19  1  0  0  0
 16 17  1  0  0  0
 19 20  1  0  0  0
 19 24  2  0  0  0
 20 21  2  0  0  0
 21 22  1  0  0  0
 22 23  2  0  0  0
 23 24  1  0  0  0
 17 18  2  0  0  0
  5  6  1  0  0  0
 11 12  2  0  0  0
M  END
> <minimizedAffinity>
-9.07969

$$$$
