CHEMBL1269662


 21 23  0  0  0  0  0  0  0  0999 V2000
  -28.3626   -0.5935  -10.1657 O   0  0  0  0  0  0  0  0  0  0  0  0
  -27.7855   -1.6444   -9.9076 C   0  0  0  0  0  0  0  0  0  0  0  0
  -26.9782   -2.3727  -10.7588 N   0  0  0  0  0  0  0  0  0  0  0  0
  -26.7371   -3.3344  -10.5269 H   0  0  0  0  0  0  0  0  0  0  0  0
  -26.6433   -2.0284  -12.0935 C   0  0  0  0  0  0  0  0  0  0  0  0
  -27.5746   -2.0948  -13.1355 C   0  0  0  0  0  0  0  0  0  0  0  0
  -27.1949   -1.8090  -14.4407 C   0  0  0  0  0  0  0  0  0  0  0  0
  -25.8810   -1.4508  -14.7129 C   0  0  0  0  0  0  0  0  0  0  0  0
  -24.9428   -1.3552  -13.6734 C   0  0  0  0  0  0  0  0  0  0  0  0
  -23.6153   -1.0065  -13.9404 C   0  0  0  0  0  0  0  0  0  0  0  0
  -22.7004   -0.9177  -12.9011 C   0  0  0  0  0  0  0  0  0  0  0  0
  -23.1497   -1.1754  -11.6207 C   0  0  0  0  0  0  0  0  0  0  0  0
  -24.4242   -1.5262  -11.3199 N   0  0  0  0  0  0  0  0  0  0  0  0
  -25.3166   -1.6235  -12.3357 C   0  0  0  0  0  0  0  0  0  0  0  0
  -28.0172   -2.2399   -8.5753 C   0  0  0  0  0  0  0  0  0  0  0  0
  -27.7286   -1.4760   -7.4483 C   0  0  0  0  0  0  0  0  0  0  0  0
  -27.9041   -1.9148   -6.1770 N   0  0  0  0  0  0  0  0  0  0  0  0
  -28.3682   -3.1785   -6.0347 C   0  0  0  0  0  0  0  0  0  0  0  0
  -28.6576   -4.0173   -7.1020 C   0  0  0  0  0  0  0  0  0  0  0  0
  -29.2844   -5.7709   -6.8057 Br  0  0  0  0  0  0  0  0  0  0  0  0
  -28.4760   -3.5452   -8.3984 C   0  0  0  0  0  0  0  0  0  0  0  0
  1  2  2  0  0  0
  2  3  1  0  0  0
  2 15  1  0  0  0
  3  5  1  0  0  0
  3  4  1  0  0  0
  5  6  1  0  0  0
  5 14  2  0  0  0
  6  7  2  0  0  0
  7  8  1  0  0  0
  8  9  2  0  0  0
  9 10  1  0  0  0
  9 14  1  0  0  0
 10 11  2  0  0  0
 11 12  1  0  0  0
 12 13  2  0  0  0
 13 14  1  0  0  0
 15 16  1  0  0  0
 15 21  2  0  0  0
 16 17  2  0  0  0
 17 18  1  0  0  0
 18 19  2  0  0  0
 19 20  1  0  0  0
 19 21  1  0  0  0
M  END
> <minimizedAffinity>
-8.56276

$$$$
