CHEMBL4552156


 38 41  0  0  0  0  0  0  0  0999 V2000
  -28.5748  -10.1411   -4.6402 C   0  0  0  0  0  0  0  0  0  0  0  0
  -29.7271  -10.5650   -5.2755 N   0  0  0  0  0  0  0  0  0  0  0  0
  -29.7515  -10.4448   -6.6270 C   0  0  0  0  0  0  0  0  0  0  0  0
  -30.8844  -10.5068   -7.4173 C   0  0  0  0  0  0  0  0  0  0  0  0
  -31.3767   -9.2990   -7.8935 C   0  0  0  0  0  0  0  0  0  0  0  0
  -30.6214   -8.1648   -7.6409 C   0  0  0  0  0  0  0  0  0  0  0  0
  -29.2536   -8.3471   -7.4156 C   0  0  0  0  0  0  0  0  0  0  0  0
  -28.7777   -9.6441   -7.1212 C   0  0  0  0  0  0  0  0  0  0  0  0
  -27.4837   -9.9161   -6.6521 C   0  0  0  0  0  0  0  0  0  0  0  0
  -27.3413  -10.2086   -5.3086 C   0  0  0  0  0  0  0  0  0  0  0  0
  -26.0317  -10.4326   -4.6305 C   0  0  0  0  0  0  0  0  0  0  0  0
  -25.9446  -11.1836   -3.4546 C   0  0  0  0  0  0  0  0  0  0  0  0
  -24.7072  -11.4172   -2.8211 C   0  0  0  0  0  0  0  0  0  0  0  0
  -23.5337  -10.8996   -3.3561 C   0  0  0  0  0  0  0  0  0  0  0  0
  -23.6186  -10.1153   -4.5046 C   0  0  0  0  0  0  0  0  0  0  0  0
  -24.8497   -9.8760   -5.1313 C   0  0  0  0  0  0  0  0  0  0  0  0
  -22.2748  -11.0598   -2.8686 O   0  0  0  0  0  0  0  0  0  0  0  0
  -21.4443  -12.0370   -3.5136 C   0  0  0  0  0  0  0  0  0  0  0  0
  -28.6500   -8.9723   -3.7515 N   0  0  0  0  0  0  0  0  0  0  0  0
  -27.8628   -9.0740   -3.1126 H   0  0  0  0  0  0  0  0  0  0  0  0
  -28.9308   -4.7367   -4.1575 C   0  0  0  0  0  0  0  0  0  0  0  0
  -30.0168   -5.5030   -3.7147 C   0  0  0  0  0  0  0  0  0  0  0  0
  -29.9525   -6.9004   -3.6380 C   0  0  0  0  0  0  0  0  0  0  0  0
  -28.8227   -7.5910   -4.0124 C   0  0  0  0  0  0  0  0  0  0  0  0
  -27.7265   -6.8232   -4.4878 C   0  0  0  0  0  0  0  0  0  0  0  0
  -27.7905   -5.4130   -4.5822 C   0  0  0  0  0  0  0  0  0  0  0  0
  -29.6912   -2.5538   -5.0916 C   0  0  0  0  0  0  0  0  0  0  0  0
  -30.5251   -2.9817   -5.8862 O   0  0  0  0  0  0  0  0  0  0  0  0
  -28.9596   -3.3108   -4.1921 N   0  0  0  0  0  0  0  0  0  0  0  0
  -28.4396   -2.7987   -3.4958 H   0  0  0  0  0  0  0  0  0  0  0  0
  -29.4867   -1.0243   -5.0228 C   0  0  0  0  0  0  0  0  0  0  0  0
  -29.1574   -0.3751   -6.3186 N   0  0  0  0  0  0  0  0  0  0  0  0
  -30.7371    1.5574   -6.0919 C   0  0  0  0  0  0  0  0  0  0  0  0
  -29.2904    1.0917   -6.2302 C   0  0  0  0  0  0  0  0  0  0  0  0
  -27.7975   -0.7978   -6.7417 C   0  0  0  0  0  0  0  0  0  0  0  0
  -27.6608   -1.4913   -8.1010 C   0  0  0  0  0  0  0  0  0  0  0  0
  -31.1238   -6.9003   -7.5716 O   0  0  0  0  0  0  0  0  0  0  0  0
  -30.1296   -5.8667   -7.4982 C   0  0  0  0  0  0  0  0  0  0  0  0
 33 34  1  0  0  0
 34 32  1  0  0  0
 32 35  1  0  0  0
 32 31  1  0  0  0
 35 36  1  0  0  0
 31 27  1  0  0  0
 27 28  2  0  0  0
 27 29  1  0  0  0
 29 21  1  0  0  0
 29 30  1  0  0  0
 21 22  1  0  0  0
 21 26  2  0  0  0
 22 23  2  0  0  0
 23 24  1  0  0  0
 24 19  1  0  0  0
 24 25  2  0  0  0
 19  1  1  0  0  0
 19 20  1  0  0  0
  1  2  1  0  0  0
  1 10  2  0  0  0
  2  3  2  0  0  0
  3  4  1  0  0  0
  3  8  1  0  0  0
  4  5  2  0  0  0
  5  6  1  0  0  0
  6 37  1  0  0  0
  6  7  2  0  0  0
 37 38  1  0  0  0
  7  8  1  0  0  0
  8  9  2  0  0  0
  9 10  1  0  0  0
 10 11  1  0  0  0
 11 12  1  0  0  0
 11 16  2  0  0  0
 12 13  2  0  0  0
 13 14  1  0  0  0
 14 17  1  0  0  0
 14 15  2  0  0  0
 17 18  1  0  0  0
 15 16  1  0  0  0
 25 26  1  0  0  0
M  END
> <minimizedAffinity>
-7.93534

$$$$
