CHEMBL2086758


 34 38  0  0  0  0  0  0  0  0999 V2000
  -29.2126   -7.9896   -7.3079 C   0  0  0  0  0  0  0  0  0  0  0  0
  -28.4144   -7.9798   -8.4688 C   0  0  0  0  0  0  0  0  0  0  0  0
  -27.8436   -6.8022   -8.9416 C   0  0  0  0  0  0  0  0  0  0  0  0
  -28.0656   -5.6540   -8.2123 C   0  0  0  0  0  0  0  0  0  0  0  0
  -28.7955   -5.6257   -7.0183 C   0  0  0  0  0  0  0  0  0  0  0  0
  -29.3625   -6.8037   -6.5580 C   0  0  0  0  0  0  0  0  0  0  0  0
  -28.7920   -4.2115   -6.5703 C   0  0  0  0  0  0  0  0  0  0  0  0
  -29.3666   -3.6147   -5.4989 C   0  0  0  0  0  0  0  0  0  0  0  0
  -27.9562   -3.4574   -7.5960 C   0  0  0  0  0  0  0  0  0  0  0  0
  -27.5641   -2.3064   -7.5849 O   0  0  0  0  0  0  0  0  0  0  0  0
  -27.5976   -4.3949   -8.5428 N   0  0  0  0  0  0  0  0  0  0  0  0
  -27.0255   -4.1632   -9.3402 H   0  0  0  0  0  0  0  0  0  0  0  0
  -30.0743   -4.3868   -4.4520 C   0  0  0  0  0  0  0  0  0  0  0  0
  -31.4327   -4.1394   -4.2011 C   0  0  0  0  0  0  0  0  0  0  0  0
  -32.1323   -4.9174   -3.2764 C   0  0  0  0  0  0  0  0  0  0  0  0
  -31.4799   -5.9429   -2.5937 C   0  0  0  0  0  0  0  0  0  0  0  0
  -30.1295   -6.1946   -2.8360 C   0  0  0  0  0  0  0  0  0  0  0  0
  -29.4289   -5.4250   -3.7683 C   0  0  0  0  0  0  0  0  0  0  0  0
  -29.3397   -2.1902   -5.3987 C   0  0  0  0  0  0  0  0  0  0  0  0
  -30.1883   -1.2837   -5.8436 N   0  0  0  0  0  0  0  0  0  0  0  0
  -29.6480   -0.0707   -5.4990 C   0  0  0  0  0  0  0  0  0  0  0  0
  -28.4835   -0.2371   -4.7897 C   0  0  0  0  0  0  0  0  0  0  0  0
  -28.3046   -1.5911   -4.7208 N   0  0  0  0  0  0  0  0  0  0  0  0
  -27.5238   -2.0723   -4.3000 H   0  0  0  0  0  0  0  0  0  0  0  0
  -29.8090   -9.1552   -6.8079 N   0  0  0  0  0  0  0  0  0  0  0  0
  -30.8227   -9.0566   -6.8650 H   0  0  0  0  0  0  0  0  0  0  0  0
  -27.3165  -11.7127   -6.1194 N   0  0  0  0  0  0  0  0  0  0  0  0
  -27.0270  -10.2682   -6.2031 C   0  0  0  0  0  0  0  0  0  0  0  0
  -27.8946   -9.4710   -5.2327 C   0  0  0  0  0  0  0  0  0  0  0  0
  -29.3870   -9.6960   -5.4997 C   0  0  0  0  0  0  0  0  0  0  0  0
  -29.6625  -11.2008   -5.4691 C   0  0  0  0  0  0  0  0  0  0  0  0
  -28.7359  -11.9682   -6.4135 C   0  0  0  0  0  0  0  0  0  0  0  0
  -26.9200  -12.4414   -8.4877 C   0  0  0  0  0  0  0  0  0  0  0  0
  -26.4247  -12.4340   -7.0457 C   0  0  0  0  0  0  0  0  0  0  0  0
 33 34  1  0  0  0
 34 27  1  0  0  0
 27 28  1  0  0  0
 27 32  1  0  0  0
 28 29  1  0  0  0
 29 30  1  0  0  0
 30 25  1  0  0  0
 30 31  1  0  0  0
 25  1  1  0  0  0
 25 26  1  0  0  0
  1  2  1  0  0  0
  1  6  2  0  0  0
  2  3  2  0  0  0
  3  4  1  0  0  0
  4  5  2  0  0  0
  4 11  1  0  0  0
  5  6  1  0  0  0
  5  7  1  0  0  0
  7  8  2  0  0  0
  7  9  1  0  0  0
  8 13  1  0  0  0
  8 19  1  0  0  0
 13 14  1  0  0  0
 13 18  2  0  0  0
 14 15  2  0  0  0
 15 16  1  0  0  0
 16 17  2  0  0  0
 17 18  1  0  0  0
 19 20  2  0  0  0
 19 23  1  0  0  0
 20 21  1  0  0  0
 21 22  2  0  0  0
 22 23  1  0  0  0
 23 24  1  0  0  0
  9 10  2  0  0  0
  9 11  1  0  0  0
 11 12  1  0  0  0
 31 32  1  0  0  0
M  END
> <minimizedAffinity>
-6.36875

$$$$
