CHEMBL3690511


 30 34  0  0  0  0  0  0  0  0999 V2000
  -29.7214   -6.1418   -3.4917 C   0  0  0  0  0  0  0  0  0  0  0  0
  -31.0854   -6.1477   -3.2012 C   0  0  0  0  0  0  0  0  0  0  0  0
  -31.9023   -5.1049   -3.6305 C   0  0  0  0  0  0  0  0  0  0  0  0
  -31.3562   -4.0382   -4.3391 C   0  0  0  0  0  0  0  0  0  0  0  0
  -29.9757   -3.9501   -4.5538 C   0  0  0  0  0  0  0  0  0  0  0  0
  -29.1690   -5.0248   -4.1393 C   0  0  0  0  0  0  0  0  0  0  0  0
  -29.3807   -2.7835   -5.2188 C   0  0  0  0  0  0  0  0  0  0  0  0
  -29.2430   -1.4803   -4.7621 C   0  0  0  0  0  0  0  0  0  0  0  0
  -28.6170   -0.6736   -5.6739 N   0  0  0  0  0  0  0  0  0  0  0  0
  -28.3674   -1.4506   -6.7048 C   0  0  0  0  0  0  0  0  0  0  0  0
  -27.7330   -1.1619   -7.9476 C   0  0  0  0  0  0  0  0  0  0  0  0
  -27.5992   -2.1110   -8.9076 C   0  0  0  0  0  0  0  0  0  0  0  0
  -28.1321   -3.4562   -8.6457 C   0  0  0  0  0  0  0  0  0  0  0  0
  -28.7458   -3.7292   -7.4839 C   0  0  0  0  0  0  0  0  0  0  0  0
  -28.8419   -2.7441   -6.5014 N   0  0  0  0  0  0  0  0  0  0  0  0
  -26.9541   -1.7601  -10.2022 C   0  0  0  0  0  0  0  0  0  0  0  0
  -27.7219   -1.6961  -11.3073 N   0  0  0  0  0  0  0  0  0  0  0  0
  -27.0920   -1.4106  -12.4612 C   0  0  0  0  0  0  0  0  0  0  0  0
  -25.7395   -1.1881  -12.5534 C   0  0  0  0  0  0  0  0  0  0  0  0
  -25.0446   -1.2708  -11.3716 C   0  0  0  0  0  0  0  0  0  0  0  0
  -25.6214   -1.5523  -10.1890 N   0  0  0  0  0  0  0  0  0  0  0  0
  -29.0757   -8.5688   -5.0511 O   0  0  0  0  0  0  0  0  0  0  0  0
  -28.5992   -8.3245   -3.9504 C   0  0  0  0  0  0  0  0  0  0  0  0
  -28.8562   -7.2111   -3.1695 N   0  0  0  0  0  0  0  0  0  0  0  0
  -27.6992   -9.1771   -3.3327 N   0  0  0  0  0  0  0  0  0  0  0  0
  -28.2627   -7.0798   -2.3668 H   0  0  0  0  0  0  0  0  0  0  0  0
  -27.3132   -8.9234   -2.4373 H   0  0  0  0  0  0  0  0  0  0  0  0
  -27.2257  -10.3695   -3.9641 C   0  0  0  0  0  0  0  0  0  0  0  0
  -27.6891  -11.7240   -3.5042 C   0  0  0  0  0  0  0  0  0  0  0  0
  -26.2808  -11.2826   -3.2328 C   0  0  0  0  0  0  0  0  0  0  0  0
 22 23  2  0  0  0
 23 24  1  0  0  0
 23 25  1  0  0  0
 24  1  1  0  0  0
 24 26  1  0  0  0
  1  2  1  0  0  0
  1  6  2  0  0  0
  2  3  2  0  0  0
  3  4  1  0  0  0
  4  5  2  0  0  0
  5  7  1  0  0  0
  5  6  1  0  0  0
  7  8  2  0  0  0
  7 15  1  0  0  0
  8  9  1  0  0  0
  9 10  2  0  0  0
 10 11  1  0  0  0
 10 15  1  0  0  0
 11 12  2  0  0  0
 12 16  1  0  0  0
 12 13  1  0  0  0
 16 17  1  0  0  0
 16 21  2  0  0  0
 17 18  2  0  0  0
 18 19  1  0  0  0
 19 20  2  0  0  0
 20 21  1  0  0  0
 13 14  2  0  0  0
 14 15  1  0  0  0
 25 28  1  0  0  0
 25 27  1  0  0  0
 28 29  1  0  0  0
 28 30  1  0  0  0
 29 30  1  0  0  0
M  END
> <minimizedAffinity>
-9.38192

$$$$
