CHEMBL3109354


 32 36  0  0  0  0  0  0  0  0999 V2000
  -29.5051   -6.7751   -6.3565 C   0  0  0  0  0  0  0  0  0  0  0  0
  -30.8720   -6.9059   -6.4984 C   0  0  0  0  0  0  0  0  0  0  0  0
  -31.3593   -7.9698   -7.2509 C   0  0  0  0  0  0  0  0  0  0  0  0
  -30.4760   -8.8951   -7.8238 C   0  0  0  0  0  0  0  0  0  0  0  0
  -30.9612   -9.9767   -8.5791 C   0  0  0  0  0  0  0  0  0  0  0  0
  -30.0839  -10.8990   -9.1402 C   0  0  0  0  0  0  0  0  0  0  0  0
  -28.7184  -10.7653   -8.9192 C   0  0  0  0  0  0  0  0  0  0  0  0
  -28.2267   -9.7150   -8.1302 C   0  0  0  0  0  0  0  0  0  0  0  0
  -29.0919   -8.7258   -7.6078 C   0  0  0  0  0  0  0  0  0  0  0  0
  -28.6417   -7.6565   -6.9029 N   0  0  0  0  0  0  0  0  0  0  0  0
  -27.9192   -1.7510   -6.1131 C   0  0  0  0  0  0  0  0  0  0  0  0
  -28.5453   -2.4415   -7.2369 C   0  0  0  0  0  0  0  0  0  0  0  0
  -28.9161   -3.7254   -7.0995 C   0  0  0  0  0  0  0  0  0  0  0  0
  -28.6527   -4.4105   -5.9129 N   0  0  0  0  0  0  0  0  0  0  0  0
  -28.9000   -5.7271   -5.5385 C   0  0  0  0  0  0  0  0  0  0  0  0
  -28.4174   -5.7986   -4.2409 C   0  0  0  0  0  0  0  0  0  0  0  0
  -27.9072   -4.6066   -3.8063 N   0  0  0  0  0  0  0  0  0  0  0  0
  -28.0483   -3.7844   -4.8220 C   0  0  0  0  0  0  0  0  0  0  0  0
  -27.6982   -2.4088   -4.9570 C   0  0  0  0  0  0  0  0  0  0  0  0
  -27.5804   -0.4114   -6.1977 O   0  0  0  0  0  0  0  0  0  0  0  0
  -27.8886    0.4373   -5.0923 C   0  0  0  0  0  0  0  0  0  0  0  0
  -29.3351    0.9056   -5.1888 C   0  0  0  0  0  0  0  0  0  0  0  0
  -30.9133    1.8088   -6.6909 C   0  0  0  0  0  0  0  0  0  0  0  0
  -29.5618    1.4131   -6.5050 O   0  0  0  0  0  0  0  0  0  0  0  0
  -26.8572   -9.7957   -7.9183 O   0  0  0  0  0  0  0  0  0  0  0  0
  -26.4683  -10.7877   -6.9649 C   0  0  0  0  0  0  0  0  0  0  0  0
  -25.9166  -10.1399   -5.7569 C   0  0  0  0  0  0  0  0  0  0  0  0
  -24.8009  -10.4667   -5.0131 C   0  0  0  0  0  0  0  0  0  0  0  0
  -24.6534   -9.6183   -3.9541 N   0  0  0  0  0  0  0  0  0  0  0  0
  -25.6654   -8.7799   -4.0440 C   0  0  0  0  0  0  0  0  0  0  0  0
  -26.4588   -9.0587   -5.1199 N   0  0  0  0  0  0  0  0  0  0  0  0
  -27.2960   -8.5647   -5.3960 H   0  0  0  0  0  0  0  0  0  0  0  0
 23 24  1  0  0  0
 24 22  1  0  0  0
 22 21  1  0  0  0
 21 20  1  0  0  0
 20 11  1  0  0  0
 11 12  1  0  0  0
 11 19  2  0  0  0
 12 13  2  0  0  0
 13 14  1  0  0  0
 14 15  1  0  0  0
 14 18  1  0  0  0
 15  1  1  0  0  0
 15 16  2  0  0  0
  1  2  1  0  0  0
  1 10  2  0  0  0
  2  3  2  0  0  0
  3  4  1  0  0  0
  4  5  1  0  0  0
  4  9  2  0  0  0
  5  6  2  0  0  0
  6  7  1  0  0  0
  7  8  2  0  0  0
  8 25  1  0  0  0
  8  9  1  0  0  0
 25 26  1  0  0  0
 26 27  1  0  0  0
 27 28  2  0  0  0
 27 31  1  0  0  0
 28 29  1  0  0  0
 29 30  2  0  0  0
 30 31  1  0  0  0
 31 32  1  0  0  0
  9 10  1  0  0  0
 16 17  1  0  0  0
 17 18  2  0  0  0
 18 19  1  0  0  0
M  END
> <minimizedAffinity>
-7.82799

$$$$
