CHEMBL566836


 42 47  0  0  0  0  0  0  0  0999 V2000
  -30.6569   -8.2683   -6.1309 C   0  0  0  0  0  0  0  0  0  0  0  0
  -29.7399   -7.6607   -5.1839 C   0  0  0  0  0  0  0  0  0  0  0  0
  -28.9428   -6.4943   -5.5009 C   0  0  0  0  0  0  0  0  0  0  0  0
  -29.2566   -5.7167   -6.6044 C   0  0  0  0  0  0  0  0  0  0  0  0
  -30.4230   -6.1348   -7.2844 C   0  0  0  0  0  0  0  0  0  0  0  0
  -31.0782   -7.3834   -7.0920 C   0  0  0  0  0  0  0  0  0  0  0  0
  -32.1095   -7.6934   -7.8866 F   0  0  0  0  0  0  0  0  0  0  0  0
  -28.4934   -4.5407   -6.9871 N   0  0  0  0  0  0  0  0  0  0  0  0
  -29.0780   -3.2615   -6.8775 C   0  0  0  0  0  0  0  0  0  0  0  0
  -30.2155   -3.0408   -6.4721 O   0  0  0  0  0  0  0  0  0  0  0  0
  -27.5557   -4.6546   -7.3847 H   0  0  0  0  0  0  0  0  0  0  0  0
  -28.2895   -2.0183   -7.2677 C   0  0  0  0  0  0  0  0  0  0  0  0
  -27.4023   -1.4592   -6.1253 C   0  0  0  0  0  0  0  0  0  0  0  0
  -28.5927   -0.6834   -6.6060 C   0  0  0  0  0  0  0  0  0  0  0  0
  -27.8075   -2.1909   -8.7059 C   0  0  0  0  0  0  0  0  0  0  0  0
  -27.2080   -3.2410   -8.9413 O   0  0  0  0  0  0  0  0  0  0  0  0
  -27.9558   -1.2376   -9.7198 N   0  0  0  0  0  0  0  0  0  0  0  0
  -28.1130   -0.2699   -9.4801 H   0  0  0  0  0  0  0  0  0  0  0  0
  -27.3756   -1.5677  -10.9999 C   0  0  0  0  0  0  0  0  0  0  0  0
  -28.1790   -1.9947  -12.0585 C   0  0  0  0  0  0  0  0  0  0  0  0
  -27.6812   -1.9164  -13.3723 C   0  0  0  0  0  0  0  0  0  0  0  0
  -26.3123   -1.7908  -13.6069 C   0  0  0  0  0  0  0  0  0  0  0  0
  -25.4640   -1.5556  -12.5352 C   0  0  0  0  0  0  0  0  0  0  0  0
  -26.0093   -1.3440  -11.2700 C   0  0  0  0  0  0  0  0  0  0  0  0
  -25.1723   -0.9658  -10.2907 F   0  0  0  0  0  0  0  0  0  0  0  0
  -30.5450   -9.6972   -6.4587 O   0  0  0  0  0  0  0  0  0  0  0  0
  -26.0930  -10.4252   -6.8269 C   0  0  0  0  0  0  0  0  0  0  0  0
  -26.2853  -10.3307   -8.1703 C   0  0  0  0  0  0  0  0  0  0  0  0
  -27.6176  -10.4225   -8.3075 C   0  0  0  0  0  0  0  0  0  0  0  0
  -28.3285  -10.2838   -9.3208 N   0  0  0  0  0  0  0  0  0  0  0  0
  -28.9593  -10.1420  -10.3130 C   0  0  0  0  0  0  0  0  0  0  0  0
  -29.9287  -10.1693   -9.2824 C   0  0  0  0  0  0  0  0  0  0  0  0
  -29.8336  -10.3936   -7.5423 C   0  0  0  0  0  0  0  0  0  0  0  0
  -28.4607  -10.5148   -7.2265 C   0  0  0  0  0  0  0  0  0  0  0  0
  -27.4855  -10.4920   -5.8500 S   0  0  0  0  0  0  0  0  0  0  0  0
  -22.6860  -10.9256   -6.3126 N   0  0  0  0  0  0  0  0  0  0  0  0
  -23.0341  -10.2191   -5.2003 C   0  0  0  0  0  0  0  0  0  0  0  0
  -24.3003   -9.8925   -5.2143 N   0  0  0  0  0  0  0  0  0  0  0  0
  -24.7390  -10.4358   -6.3709 C   0  0  0  0  0  0  0  0  0  0  0  0
  -23.7855  -11.1196   -7.0710 C   0  0  0  0  0  0  0  0  0  0  0  0
  -20.7093  -10.0422   -7.3540 C   0  0  0  0  0  0  0  0  0  0  0  0
  -21.3522  -11.2647   -6.7285 C   0  0  0  0  0  0  0  0  0  0  0  0
 41 42  1  0  0  0
 42 36  1  0  0  0
 36 37  1  0  0  0
 36 40  1  0  0  0
 37 38  2  0  0  0
 38 39  1  0  0  0
 39 27  1  0  0  0
 39 40  2  0  0  0
 27 28  2  0  0  0
 27 35  1  0  0  0
 28 29  1  0  0  0
 29 30  1  0  0  0
 29 34  2  0  0  0
 30 31  2  0  0  0
 31 32  1  0  0  0
 32 33  2  0  0  0
 33 26  1  0  0  0
 33 34  1  0  0  0
 26  1  1  0  0  0
  1  2  1  0  0  0
  1  6  2  0  0  0
  2  3  2  0  0  0
  3  4  1  0  0  0
  4  8  1  0  0  0
  4  5  2  0  0  0
  8  9  1  0  0  0
  8 11  1  0  0  0
  9 10  2  0  0  0
  9 12  1  0  0  0
 12 15  1  0  0  0
 12 13  1  0  0  0
 12 14  1  0  0  0
 15 16  2  0  0  0
 15 17  1  0  0  0
 17 19  1  0  0  0
 17 18  1  0  0  0
 19 20  1  0  0  0
 19 24  2  0  0  0
 20 21  2  0  0  0
 21 22  1  0  0  0
 22 23  2  0  0  0
 23 24  1  0  0  0
 24 25  1  0  0  0
 13 14  1  0  0  0
  5  6  1  0  0  0
  6  7  1  0  0  0
 34 35  1  0  0  0
M  END
> <minimizedAffinity>
-9.51695

$$$$
