CHEMBL2403372


 34 38  0  0  0  0  0  0  0  0999 V2000
  -26.8282   -1.6466   -9.2552 C   0  0  0  0  0  0  0  0  0  0  0  0
  -27.4833   -1.1280   -8.1520 C   0  0  0  0  0  0  0  0  0  0  0  0
  -27.9851   -2.2224   -7.3945 C   0  0  0  0  0  0  0  0  0  0  0  0
  -27.6588   -3.3480   -8.1077 C   0  0  0  0  0  0  0  0  0  0  0  0
  -26.9993   -3.0058   -9.2484 N   0  0  0  0  0  0  0  0  0  0  0  0
  -27.8817   -4.7212   -7.6764 C   0  0  0  0  0  0  0  0  0  0  0  0
  -28.7881   -4.7549   -6.4535 C   0  0  0  0  0  0  0  0  0  0  0  0
  -29.0239   -3.6012   -5.5964 N   0  0  0  0  0  0  0  0  0  0  0  0
  -29.8063   -3.6467   -4.4479 C   0  0  0  0  0  0  0  0  0  0  0  0
  -29.9496   -2.6100   -3.7816 O   0  0  0  0  0  0  0  0  0  0  0  0
  -30.4591   -4.8145   -4.0507 N   0  0  0  0  0  0  0  0  0  0  0  0
  -30.6178   -6.1446   -4.6762 C   0  0  0  0  0  0  0  0  0  0  0  0
  -32.0427   -6.2889   -5.2081 C   0  0  0  0  0  0  0  0  0  0  0  0
  -32.9612   -6.2453   -4.1089 O   0  0  0  0  0  0  0  0  0  0  0  0
  -32.8492   -4.9956   -3.4031 C   0  0  0  0  0  0  0  0  0  0  0  0
  -31.4085   -4.7027   -2.9326 C   0  0  0  0  0  0  0  0  0  0  0  0
  -28.6701   -2.2379   -6.0671 C   0  0  0  0  0  0  0  0  0  0  0  0
  -26.5941   -3.6558   -9.9078 H   0  0  0  0  0  0  0  0  0  0  0  0
  -28.4483   -2.4800  -11.5931 O   0  0  0  0  0  0  0  0  0  0  0  0
  -27.4654   -2.0261  -12.1448 C   0  0  0  0  0  0  0  0  0  0  0  0
  -27.2340   -2.0398  -13.5079 N   0  0  0  0  0  0  0  0  0  0  0  0
  -26.0633   -1.3701  -13.8353 C   0  0  0  0  0  0  0  0  0  0  0  0
  -25.5490   -1.2082  -15.1003 C   0  0  0  0  0  0  0  0  0  0  0  0
  -24.3419   -0.5111  -15.2145 C   0  0  0  0  0  0  0  0  0  0  0  0
  -23.6798   -0.0023  -14.0751 C   0  0  0  0  0  0  0  0  0  0  0  0
  -24.2409   -0.1793  -12.7953 C   0  0  0  0  0  0  0  0  0  0  0  0
  -25.4376   -0.8709  -12.6886 C   0  0  0  0  0  0  0  0  0  0  0  0
  -26.2799   -1.2841  -11.5598 C   0  0  0  0  0  0  0  0  0  0  0  0
  -26.0169   -1.0794  -10.2597 C   0  0  0  0  0  0  0  0  0  0  0  0
  -27.8683   -2.4844  -14.1527 H   0  0  0  0  0  0  0  0  0  0  0  0
  -22.3628    0.7284  -14.2303 C   0  0  0  0  0  0  0  0  0  0  0  0
  -21.6486    0.3340  -15.3210 F   0  0  0  0  0  0  0  0  0  0  0  0
  -22.5257    2.0738  -14.3564 F   0  0  0  0  0  0  0  0  0  0  0  0
  -21.5416    0.5464  -13.1604 F   0  0  0  0  0  0  0  0  0  0  0  0
 19 20  2  0  0  0
 20 21  1  0  0  0
 20 28  1  0  0  0
 21 22  1  0  0  0
 21 30  1  0  0  0
 22 23  1  0  0  0
 22 27  2  0  0  0
 23 24  2  0  0  0
 24 25  1  0  0  0
 25 31  1  0  0  0
 25 26  2  0  0  0
 31 32  1  0  0  0
 31 33  1  0  0  0
 31 34  1  0  0  0
 26 27  1  0  0  0
 27 28  1  0  0  0
 28 29  2  0  0  0
 29  1  1  0  0  0
  1  2  2  0  0  0
  1  5  1  0  0  0
  2  3  1  0  0  0
  3  4  2  0  0  0
  3 17  1  0  0  0
  4  5  1  0  0  0
  4  6  1  0  0  0
  5 18  1  0  0  0
  6  7  1  0  0  0
  7  8  1  0  0  0
  8  9  1  0  0  0
  8 17  1  0  0  0
  9 10  2  0  0  0
  9 11  1  0  0  0
 11 12  1  0  0  0
 11 16  1  0  0  0
 12 13  1  0  0  0
 13 14  1  0  0  0
 14 15  1  0  0  0
 15 16  1  0  0  0
M  END
> <minimizedAffinity>
-6.90876

$$$$
