CHEMBL1982135


 33 37  0  0  0  0  0  0  0  0999 V2000
  -20.0869    2.0124  -14.8377 C   0  0  0  0  0  0  0  0  0  0  0  0
  -19.3448    3.2015  -14.9735 C   0  0  0  0  0  0  0  0  0  0  0  0
  -17.9778    3.2249  -15.5288 C   0  0  0  0  0  0  0  0  0  0  0  0
  -17.2689    2.0563  -15.8774 C   0  0  0  0  0  0  0  0  0  0  0  0
  -17.9793    0.9116  -15.4029 C   0  0  0  0  0  0  0  0  0  0  0  0
  -19.3878    0.8609  -15.1456 C   0  0  0  0  0  0  0  0  0  0  0  0
  -17.1762    0.0303  -14.4119 C   0  0  0  0  0  0  0  0  0  0  0  0
  -16.2506    1.0037  -13.6173 C   0  0  0  0  0  0  0  0  0  0  0  0
  -15.2820    1.4563  -14.6601 C   0  0  0  0  0  0  0  0  0  0  0  0
  -13.7349    0.7740  -14.6049 S   0  0  0  0  0  0  0  0  0  0  0  0
  -13.9564    0.2944  -16.2184 C   0  0  0  0  0  0  0  0  0  0  0  0
  -13.2434   -0.7356  -16.6994 N   0  0  0  0  0  0  0  0  0  0  0  0
  -13.1573   -0.7065  -18.0181 C   0  0  0  0  0  0  0  0  0  0  0  0
  -13.5522    0.3076  -18.7898 N   0  0  0  0  0  0  0  0  0  0  0  0
  -14.2553    1.3372  -18.2410 C   0  0  0  0  0  0  0  0  0  0  0  0
  -14.0982    2.5171  -18.9803 N   0  0  0  0  0  0  0  0  0  0  0  0
  -14.7284    1.2455  -16.9008 C   0  0  0  0  0  0  0  0  0  0  0  0
  -15.6923    1.9303  -15.9117 C   0  0  0  0  0  0  0  0  0  0  0  0
  -13.3637    2.2924  -19.6622 H   0  0  0  0  0  0  0  0  0  0  0  0
  -13.7860    3.2767  -18.3806 H   0  0  0  0  0  0  0  0  0  0  0  0
  -23.4316    0.9240  -13.4567 N   0  0  0  0  0  0  0  0  0  0  0  0
  -22.1217    0.6794  -13.9737 C   0  0  0  0  0  0  0  0  0  0  0  0
  -21.6265   -0.4220  -14.1502 O   0  0  0  0  0  0  0  0  0  0  0  0
  -21.4357    1.8475  -14.2852 N   0  0  0  0  0  0  0  0  0  0  0  0
  -23.7434    1.8748  -13.3349 H   0  0  0  0  0  0  0  0  0  0  0  0
  -21.9829    2.7053  -14.2403 H   0  0  0  0  0  0  0  0  0  0  0  0
  -25.0013   -0.8713  -15.4340 C   0  0  0  0  0  0  0  0  0  0  0  0
  -25.1341   -0.9121  -13.9333 C   0  0  0  0  0  0  0  0  0  0  0  0
  -26.0785   -1.8589  -13.4447 C   0  0  0  0  0  0  0  0  0  0  0  0
  -26.3209   -2.0094  -12.0828 C   0  0  0  0  0  0  0  0  0  0  0  0
  -25.6181   -1.2136  -11.1980 C   0  0  0  0  0  0  0  0  0  0  0  0
  -24.6810   -0.2765  -11.6564 C   0  0  0  0  0  0  0  0  0  0  0  0
  -24.4022   -0.0777  -13.0237 C   0  0  0  0  0  0  0  0  0  0  0  0
 27 28  1  0  0  0
 28 29  1  0  0  0
 28 33  2  0  0  0
 29 30  2  0  0  0
 30 31  1  0  0  0
 31 32  2  0  0  0
 32 33  1  0  0  0
 33 21  1  0  0  0
 21 22  1  0  0  0
 21 25  1  0  0  0
 22 23  2  0  0  0
 22 24  1  0  0  0
 24  1  1  0  0  0
 24 26  1  0  0  0
  1  2  1  0  0  0
  1  6  2  0  0  0
  2  3  2  0  0  0
  3  4  1  0  0  0
  4  5  2  0  0  0
  4 18  1  0  0  0
  5  6  1  0  0  0
  5  7  1  0  0  0
  7  8  1  0  0  0
  8  9  1  0  0  0
  9 10  1  0  0  0
  9 18  2  0  0  0
 10 11  1  0  0  0
 11 12  1  0  0  0
 11 17  2  0  0  0
 12 13  2  0  0  0
 13 14  1  0  0  0
 14 15  2  0  0  0
 15 16  1  0  0  0
 15 17  1  0  0  0
 16 19  1  0  0  0
 16 20  1  0  0  0
 17 18  1  0  0  0
M  END
> <minimizedAffinity>
-10.34053

$$$$
