CHEMBL3397918


 38 41  0  0  0  0  0  0  0  0999 V2000
  -27.8619   -2.3693   -8.5827 C   0  0  0  0  0  0  0  0  0  0  0  0
  -27.9733   -1.1668   -8.3872 O   0  0  0  0  0  0  0  0  0  0  0  0
  -27.2140   -2.9719   -9.6555 N   0  0  0  0  0  0  0  0  0  0  0  0
  -27.3861   -3.9572   -9.8123 H   0  0  0  0  0  0  0  0  0  0  0  0
  -29.3694   -5.3529   -5.9009 C   0  0  0  0  0  0  0  0  0  0  0  0
  -29.0541   -5.6531   -7.2206 C   0  0  0  0  0  0  0  0  0  0  0  0
  -28.6330   -4.6375   -8.0779 C   0  0  0  0  0  0  0  0  0  0  0  0
  -28.5025   -3.3140   -7.6202 C   0  0  0  0  0  0  0  0  0  0  0  0
  -28.8458   -2.9496   -6.2886 C   0  0  0  0  0  0  0  0  0  0  0  0
  -29.3091   -4.0154   -5.4616 C   0  0  0  0  0  0  0  0  0  0  0  0
  -29.7339   -3.8058   -4.1692 O   0  0  0  0  0  0  0  0  0  0  0  0
  -29.9928   -2.8765   -4.0560 H   0  0  0  0  0  0  0  0  0  0  0  0
  -28.7528   -1.5453   -5.7703 C   0  0  0  0  0  0  0  0  0  0  0  0
  -27.5898   -1.0466   -5.1464 C   0  0  0  0  0  0  0  0  0  0  0  0
  -27.5190    0.2667   -4.6595 C   0  0  0  0  0  0  0  0  0  0  0  0
  -28.5872    1.1426   -4.8313 C   0  0  0  0  0  0  0  0  0  0  0  0
  -29.7253    0.6846   -5.4766 C   0  0  0  0  0  0  0  0  0  0  0  0
  -30.7772    1.5183   -5.7307 O   0  0  0  0  0  0  0  0  0  0  0  0
  -29.8269   -0.6392   -5.9030 C   0  0  0  0  0  0  0  0  0  0  0  0
  -30.5460    2.4132   -5.4313 H   0  0  0  0  0  0  0  0  0  0  0  0
  -29.5472   -7.6484   -5.2537 C   0  0  0  0  0  0  0  0  0  0  0  0
  -29.7532   -6.2772   -4.9612 O   0  0  0  0  0  0  0  0  0  0  0  0
  -26.6446   -2.2489  -10.7279 C   0  0  0  0  0  0  0  0  0  0  0  0
  -27.2155   -2.2066  -12.0012 C   0  0  0  0  0  0  0  0  0  0  0  0
  -26.5637   -1.5489  -13.0525 C   0  0  0  0  0  0  0  0  0  0  0  0
  -25.3263   -0.9342  -12.8309 C   0  0  0  0  0  0  0  0  0  0  0  0
  -24.7671   -0.9669  -11.5608 C   0  0  0  0  0  0  0  0  0  0  0  0
  -25.4357   -1.5868  -10.5010 C   0  0  0  0  0  0  0  0  0  0  0  0
  -24.5782   -0.2865  -13.7808 O   0  0  0  0  0  0  0  0  0  0  0  0
  -23.4155    0.3717  -13.2903 C   0  0  0  0  0  0  0  0  0  0  0  0
  -22.1774   -0.1135  -14.0545 C   0  0  0  0  0  0  0  0  0  0  0  0
  -21.1428    1.0125  -14.0040 C   0  0  0  0  0  0  0  0  0  0  0  0
  -20.3873    1.3237  -15.2272 N   0  0  0  0  0  0  0  0  0  0  0  0
  -18.9805    0.8650  -15.2137 C   0  0  0  0  0  0  0  0  0  0  0  0
  -18.0914    1.6004  -14.1950 C   0  0  0  0  0  0  0  0  0  0  0  0
  -18.1251    3.0215  -14.3855 O   0  0  0  0  0  0  0  0  0  0  0  0
  -19.4640    3.5226  -14.3647 C   0  0  0  0  0  0  0  0  0  0  0  0
  -20.3532    2.8026  -15.4058 C   0  0  0  0  0  0  0  0  0  0  0  0
 21 22  1  0  0  0
 22  5  1  0  0  0
  5  6  1  0  0  0
  5 10  2  0  0  0
  6  7  2  0  0  0
  7  8  1  0  0  0
  8  1  1  0  0  0
  8  9  2  0  0  0
  1  2  2  0  0  0
  1  3  1  0  0  0
  3 23  1  0  0  0
  3  4  1  0  0  0
 23 24  1  0  0  0
 23 28  2  0  0  0
 24 25  2  0  0  0
 25 26  1  0  0  0
 26 29  1  0  0  0
 26 27  2  0  0  0
 29 30  1  0  0  0
 30 31  1  0  0  0
 31 32  1  0  0  0
 32 33  1  0  0  0
 33 34  1  0  0  0
 33 38  1  0  0  0
 34 35  1  0  0  0
 35 36  1  0  0  0
 36 37  1  0  0  0
 37 38  1  0  0  0
 27 28  1  0  0  0
  9 13  1  0  0  0
  9 10  1  0  0  0
 13 14  1  0  0  0
 13 19  2  0  0  0
 14 15  2  0  0  0
 15 16  1  0  0  0
 16 17  2  0  0  0
 17 18  1  0  0  0
 17 19  1  0  0  0
 18 20  1  0  0  0
 10 11  1  0  0  0
 11 12  1  0  0  0
M  END
> <minimizedAffinity>
-10.00505

$$$$
