CHEMBL191779


 28 30  0  0  0  0  0  0  0  0999 V2000
  -27.3814   -1.8839   -7.9114 N   0  0  0  0  0  0  0  0  0  0  0  0
  -26.9185   -1.1838   -7.3410 H   0  0  0  0  0  0  0  0  0  0  0  0
  -29.3997   -4.7926   -6.7162 C   0  0  0  0  0  0  0  0  0  0  0  0
  -30.2443   -4.1832   -5.7945 C   0  0  0  0  0  0  0  0  0  0  0  0
  -30.1053   -2.8145   -5.5407 C   0  0  0  0  0  0  0  0  0  0  0  0
  -29.1468   -2.0564   -6.2301 C   0  0  0  0  0  0  0  0  0  0  0  0
  -28.2990   -2.6743   -7.1774 C   0  0  0  0  0  0  0  0  0  0  0  0
  -28.4101   -4.0585   -7.3631 C   0  0  0  0  0  0  0  0  0  0  0  0
  -29.6061   -6.5008   -7.1635 S   0  0  0  0  0  0  0  0  0  0  0  0
  -28.5122   -6.8438   -8.0502 O   0  0  0  0  0  0  0  0  0  0  0  0
  -30.9857   -6.6653   -7.5803 O   0  0  0  0  0  0  0  0  0  0  0  0
  -28.0560   -6.9749   -4.9515 C   0  0  0  0  0  0  0  0  0  0  0  0
  -29.3585   -7.3707   -5.6186 C   0  0  0  0  0  0  0  0  0  0  0  0
  -28.9854   -0.6961   -6.0978 O   0  0  0  0  0  0  0  0  0  0  0  0
  -28.4251   -0.2377   -4.8723 C   0  0  0  0  0  0  0  0  0  0  0  0
  -27.3587   -1.7410   -9.2480 C   0  0  0  0  0  0  0  0  0  0  0  0
  -28.3436   -1.8208  -10.1182 N   0  0  0  0  0  0  0  0  0  0  0  0
  -27.7685   -1.5373  -11.3163 C   0  0  0  0  0  0  0  0  0  0  0  0
  -26.4302   -1.2725  -11.1478 C   0  0  0  0  0  0  0  0  0  0  0  0
  -26.1501   -1.4185   -9.8109 O   0  0  0  0  0  0  0  0  0  0  0  0
  -25.3616   -0.8905  -12.0540 C   0  0  0  0  0  0  0  0  0  0  0  0
  -25.3155   -1.4618  -13.3353 C   0  0  0  0  0  0  0  0  0  0  0  0
  -24.3018   -1.1371  -14.2390 C   0  0  0  0  0  0  0  0  0  0  0  0
  -23.3103   -0.2309  -13.8760 C   0  0  0  0  0  0  0  0  0  0  0  0
  -23.3529    0.3535  -12.6077 C   0  0  0  0  0  0  0  0  0  0  0  0
  -24.3703    0.0294  -11.7015 C   0  0  0  0  0  0  0  0  0  0  0  0
  -22.2613    0.1562  -14.6629 O   0  0  0  0  0  0  0  0  0  0  0  0
  -21.3151    1.0383  -14.0688 C   0  0  0  0  0  0  0  0  0  0  0  0
 12 13  1  0  0  0
 13  9  1  0  0  0
  9 10  2  0  0  0
  9 11  2  0  0  0
  9  3  1  0  0  0
  3  4  1  0  0  0
  3  8  2  0  0  0
  4  5  2  0  0  0
  5  6  1  0  0  0
  6 14  1  0  0  0
  6  7  2  0  0  0
 14 15  1  0  0  0
  7  1  1  0  0  0
  7  8  1  0  0  0
  1 16  1  0  0  0
  1  2  1  0  0  0
 16 17  2  0  0  0
 16 20  1  0  0  0
 17 18  1  0  0  0
 18 19  2  0  0  0
 19 21  1  0  0  0
 19 20  1  0  0  0
 21 22  1  0  0  0
 21 26  2  0  0  0
 22 23  2  0  0  0
 23 24  1  0  0  0
 24 27  1  0  0  0
 24 25  2  0  0  0
 27 28  1  0  0  0
 25 26  1  0  0  0
M  END
> <minimizedAffinity>
-8.26761

$$$$
