CHEMBL3968793


 37 40  0  0  0  0  0  0  0  0999 V2000
  -28.0430   -2.1033   -8.6308 N   0  0  0  0  0  0  0  0  0  0  0  0
  -27.5157   -1.5422   -9.8648 C   0  0  0  0  0  0  0  0  0  0  0  0
  -28.3338   -1.7483  -10.9780 C   0  0  0  0  0  0  0  0  0  0  0  0
  -27.7904   -1.8144  -12.2418 C   0  0  0  0  0  0  0  0  0  0  0  0
  -26.4728   -1.5129  -12.4664 C   0  0  0  0  0  0  0  0  0  0  0  0
  -26.0556   -1.7928  -13.7050 N   0  0  0  0  0  0  0  0  0  0  0  0
  -24.8456   -1.3502  -14.0394 C   0  0  0  0  0  0  0  0  0  0  0  0
  -24.0927   -0.5506  -13.2009 C   0  0  0  0  0  0  0  0  0  0  0  0
  -24.4611   -0.3708  -11.8737 N   0  0  0  0  0  0  0  0  0  0  0  0
  -25.6724   -0.9179  -11.4607 C   0  0  0  0  0  0  0  0  0  0  0  0
  -26.2178   -1.0167  -10.1163 C   0  0  0  0  0  0  0  0  0  0  0  0
  -23.0188    0.2005  -13.8295 C   0  0  0  0  0  0  0  0  0  0  0  0
  -21.7845   -0.2716  -14.3500 C   0  0  0  0  0  0  0  0  0  0  0  0
  -20.9276    0.7199  -14.6353 N   0  0  0  0  0  0  0  0  0  0  0  0
  -21.6107    1.8266  -14.2978 N   0  0  0  0  0  0  0  0  0  0  0  0
  -21.1765    3.1241  -14.7602 C   0  0  0  0  0  0  0  0  0  0  0  0
  -22.7800    1.5505  -13.6415 C   0  0  0  0  0  0  0  0  0  0  0  0
  -28.7960    0.3475   -5.8944 C   0  0  0  0  0  0  0  0  0  0  0  0
  -28.4875   -0.4025   -4.7569 C   0  0  0  0  0  0  0  0  0  0  0  0
  -27.9503   -1.6837   -4.8948 C   0  0  0  0  0  0  0  0  0  0  0  0
  -27.7350   -2.2106   -6.1741 C   0  0  0  0  0  0  0  0  0  0  0  0
  -28.0484   -1.5090   -7.3414 C   0  0  0  0  0  0  0  0  0  0  0  0
  -28.5513   -0.2074   -7.1787 C   0  0  0  0  0  0  0  0  0  0  0  0
  -30.7392    1.6852   -6.2408 C   0  0  0  0  0  0  0  0  0  0  0  0
  -29.3599    1.5972   -5.8749 O   0  0  0  0  0  0  0  0  0  0  0  0
  -27.6408   -2.5240   -3.8579 O   0  0  0  0  0  0  0  0  0  0  0  0
  -28.7182   -2.9569   -3.0336 C   0  0  0  0  0  0  0  0  0  0  0  0
  -27.7209   -3.5789   -8.6873 C   0  0  0  0  0  0  0  0  0  0  0  0
  -28.6980   -4.5837   -8.0395 C   0  0  0  0  0  0  0  0  0  0  0  0
  -28.2714   -6.0612   -7.9445 C   0  0  0  0  0  0  0  0  0  0  0  0
  -28.4898   -6.4714   -6.5531 N   0  0  0  0  0  0  0  0  0  0  0  0
  -28.1288   -5.7534   -5.9071 H   0  0  0  0  0  0  0  0  0  0  0  0
  -29.9006   -6.7586   -6.1985 C   0  0  0  0  0  0  0  0  0  0  0  0
  -30.4953   -5.9407   -5.0150 C   0  0  0  0  0  0  0  0  0  0  0  0
  -29.7546   -6.0542   -3.8881 F   0  0  0  0  0  0  0  0  0  0  0  0
  -30.5491   -4.6221   -5.3215 F   0  0  0  0  0  0  0  0  0  0  0  0
  -31.7540   -6.3373   -4.7196 F   0  0  0  0  0  0  0  0  0  0  0  0
 24 25  1  0  0  0
 25 18  1  0  0  0
 18 19  1  0  0  0
 18 23  2  0  0  0
 19 20  2  0  0  0
 20 26  1  0  0  0
 20 21  1  0  0  0
 26 27  1  0  0  0
 21 22  2  0  0  0
 22  1  1  0  0  0
 22 23  1  0  0  0
  1 28  1  0  0  0
  1  2  1  0  0  0
 28 29  1  0  0  0
 29 30  1  0  0  0
 30 31  1  0  0  0
 31 33  1  0  0  0
 31 32  1  0  0  0
 33 34  1  0  0  0
 34 35  1  0  0  0
 34 36  1  0  0  0
 34 37  1  0  0  0
  2  3  1  0  0  0
  2 11  2  0  0  0
  3  4  2  0  0  0
  4  5  1  0  0  0
  5  6  1  0  0  0
  5 10  2  0  0  0
  6  7  2  0  0  0
  7  8  1  0  0  0
  8 12  1  0  0  0
  8  9  2  0  0  0
 12 13  1  0  0  0
 12 17  2  0  0  0
 13 14  2  0  0  0
 14 15  1  0  0  0
 15 16  1  0  0  0
 15 17  1  0  0  0
  9 10  1  0  0  0
 10 11  1  0  0  0
M  END
> <minimizedAffinity>
-8.33943

$$$$
