CHEMBL1823220


 35 40  0  0  0  0  0  0  0  0999 V2000
  -15.8670    0.2221  -14.2468 C   0  0  0  0  0  0  0  0  0  0  0  0
  -15.9104   -1.0606  -13.6880 C   0  0  0  0  0  0  0  0  0  0  0  0
  -14.8783   -1.9770  -13.9165 C   0  0  0  0  0  0  0  0  0  0  0  0
  -13.7650   -1.6224  -14.7000 C   0  0  0  0  0  0  0  0  0  0  0  0
  -13.7362   -0.3195  -15.2202 C   0  0  0  0  0  0  0  0  0  0  0  0
  -14.7615    0.6271  -15.0287 C   0  0  0  0  0  0  0  0  0  0  0  0
  -12.6048   -2.5864  -15.0191 C   0  0  0  0  0  0  0  0  0  0  0  0
  -12.5527   -2.8189  -16.5467 C   0  0  0  0  0  0  0  0  0  0  0  0
  -11.2668   -1.9890  -14.5276 C   0  0  0  0  0  0  0  0  0  0  0  0
  -12.8397   -3.9046  -14.3335 C   0  0  0  0  0  0  0  0  0  0  0  0
  -12.0041   -4.9913  -14.3758 N   0  0  0  0  0  0  0  0  0  0  0  0
  -12.5463   -6.0239  -13.6431 C   0  0  0  0  0  0  0  0  0  0  0  0
  -12.0646   -7.3137  -13.4040 C   0  0  0  0  0  0  0  0  0  0  0  0
  -12.8555   -8.1622  -12.6109 C   0  0  0  0  0  0  0  0  0  0  0  0
  -14.0720   -7.7313  -12.0801 C   0  0  0  0  0  0  0  0  0  0  0  0
  -14.5362   -6.4435  -12.3304 C   0  0  0  0  0  0  0  0  0  0  0  0
  -13.7611   -5.5752  -13.1237 C   0  0  0  0  0  0  0  0  0  0  0  0
  -13.9322   -4.2417  -13.5625 C   0  0  0  0  0  0  0  0  0  0  0  0
  -15.0191   -3.3259  -13.3070 C   0  0  0  0  0  0  0  0  0  0  0  0
  -16.0023   -3.6208  -12.6368 O   0  0  0  0  0  0  0  0  0  0  0  0
  -11.1236   -5.0408  -14.8712 H   0  0  0  0  0  0  0  0  0  0  0  0
  -14.5775    1.8925  -15.5674 N   0  0  0  0  0  0  0  0  0  0  0  0
  -13.3570    2.6771  -15.3136 C   0  0  0  0  0  0  0  0  0  0  0  0
  -13.6965    4.1718  -15.1268 C   0  0  0  0  0  0  0  0  0  0  0  0
  -14.5503    4.7840  -16.1697 N   0  0  0  0  0  0  0  0  0  0  0  0
  -15.7753    3.9507  -16.2782 C   0  0  0  0  0  0  0  0  0  0  0  0
  -15.5431    2.4436  -16.5217 C   0  0  0  0  0  0  0  0  0  0  0  0
  -13.8898    4.8289  -17.4935 C   0  0  0  0  0  0  0  0  0  0  0  0
  -12.9947    6.0584  -17.7164 C   0  0  0  0  0  0  0  0  0  0  0  0
  -13.7207    6.3937  -18.9352 O   0  0  0  0  0  0  0  0  0  0  0  0
  -14.8202    5.5517  -18.4928 C   0  0  0  0  0  0  0  0  0  0  0  0
  -17.9767    1.7494  -13.8242 C   0  0  0  0  0  0  0  0  0  0  0  0
  -17.0154    1.0562  -14.0006 C   0  0  0  0  0  0  0  0  0  0  0  0
  -12.4016   -9.4887  -12.3391 C   0  0  0  0  0  0  0  0  0  0  0  0
  -12.0273  -10.5691  -12.1265 N   0  0  0  0  0  0  0  0  0  0  0  0
 32 33  3  0  0  0
 33  1  1  0  0  0
  1  2  1  0  0  0
  1  6  2  0  0  0
  2  3  2  0  0  0
  3  4  1  0  0  0
  3 19  1  0  0  0
  4  5  2  0  0  0
  4  7  1  0  0  0
  5  6  1  0  0  0
  6 22  1  0  0  0
 22 23  1  0  0  0
 22 27  1  0  0  0
 23 24  1  0  0  0
 24 25  1  0  0  0
 25 28  1  0  0  0
 25 26  1  0  0  0
 28 29  1  0  0  0
 28 31  1  0  0  0
 29 30  1  0  0  0
 30 31  1  0  0  0
 26 27  1  0  0  0
  7  8  1  0  0  0
  7  9  1  0  0  0
  7 10  1  0  0  0
 10 11  1  0  0  0
 10 18  2  0  0  0
 11 12  1  0  0  0
 11 21  1  0  0  0
 12 13  1  0  0  0
 12 17  2  0  0  0
 13 14  2  0  0  0
 14 34  1  0  0  0
 14 15  1  0  0  0
 34 35  3  0  0  0
 15 16  2  0  0  0
 16 17  1  0  0  0
 17 18  1  0  0  0
 18 19  1  0  0  0
 19 20  2  0  0  0
M  END
> <minimizedAffinity>
-6.97341

$$$$
