CHEMBL4291402


 29 32  0  0  0  0  0  0  0  0999 V2000
  -29.1774   -1.6218   -4.9503 C   0  0  0  0  0  0  0  0  0  0  0  0
  -28.9177   -0.2470   -4.8005 C   0  0  0  0  0  0  0  0  0  0  0  0
  -28.2429    0.4623   -5.7863 C   0  0  0  0  0  0  0  0  0  0  0  0
  -27.7725   -0.1976   -6.9059 C   0  0  0  0  0  0  0  0  0  0  0  0
  -27.9718   -1.5844   -7.0528 C   0  0  0  0  0  0  0  0  0  0  0  0
  -28.7355   -2.3287   -6.1017 C   0  0  0  0  0  0  0  0  0  0  0  0
  -29.1446   -3.7542   -6.3775 C   0  0  0  0  0  0  0  0  0  0  0  0
  -30.0303   -4.1342   -7.3991 C   0  0  0  0  0  0  0  0  0  0  0  0
  -30.2961   -5.4886   -7.7035 C   0  0  0  0  0  0  0  0  0  0  0  0
  -29.6994   -6.5530   -6.9992 C   0  0  0  0  0  0  0  0  0  0  0  0
  -28.8174   -6.1706   -5.9181 C   0  0  0  0  0  0  0  0  0  0  0  0
  -28.5682   -4.8068   -5.6518 C   0  0  0  0  0  0  0  0  0  0  0  0
  -28.0101   -7.1483   -5.0095 C   0  0  0  0  0  0  0  0  0  0  0  0
  -28.3447   -8.4223   -5.6781 C   0  0  0  0  0  0  0  0  0  0  0  0
  -28.5205   -9.7545   -6.1127 N   0  0  0  0  0  0  0  0  0  0  0  0
  -29.5307   -9.5097   -7.2172 C   0  0  0  0  0  0  0  0  0  0  0  0
  -30.1574   -7.9973   -7.4903 C   0  0  0  0  0  0  0  0  0  0  0  0
  -28.9338  -10.3360   -5.3861 H   0  0  0  0  0  0  0  0  0  0  0  0
  -29.1046   -2.7185   -2.8172 C   0  0  0  0  0  0  0  0  0  0  0  0
  -29.8340   -2.3484   -3.9782 O   0  0  0  0  0  0  0  0  0  0  0  0
  -27.4825   -2.2410   -8.1528 O   0  0  0  0  0  0  0  0  0  0  0  0
  -28.1352   -2.0046   -9.3989 C   0  0  0  0  0  0  0  0  0  0  0  0
  -27.1106   -1.7586  -10.4851 C   0  0  0  0  0  0  0  0  0  0  0  0
  -27.4714   -1.8175  -11.8334 C   0  0  0  0  0  0  0  0  0  0  0  0
  -26.5005   -1.6199  -12.8157 C   0  0  0  0  0  0  0  0  0  0  0  0
  -26.8537   -1.6547  -14.2694 C   0  0  0  0  0  0  0  0  0  0  0  0
  -25.1870   -1.3862  -12.4103 C   0  0  0  0  0  0  0  0  0  0  0  0
  -24.9067   -1.3598  -11.0520 C   0  0  0  0  0  0  0  0  0  0  0  0
  -25.8314   -1.5433  -10.0868 N   0  0  0  0  0  0  0  0  0  0  0  0
 19 20  1  0  0  0
 20  1  1  0  0  0
  1  2  1  0  0  0
  1  6  2  0  0  0
  2  3  2  0  0  0
  3  4  1  0  0  0
  4  5  2  0  0  0
  5 21  1  0  0  0
  5  6  1  0  0  0
 21 22  1  0  0  0
 22 23  1  0  0  0
 23 24  1  0  0  0
 23 29  2  0  0  0
 24 25  2  0  0  0
 25 26  1  0  0  0
 25 27  1  0  0  0
 27 28  2  0  0  0
 28 29  1  0  0  0
  6  7  1  0  0  0
  7  8  1  0  0  0
  7 12  2  0  0  0
  8  9  2  0  0  0
  9 10  1  0  0  0
 10 11  2  0  0  0
 10 17  1  0  0  0
 11 12  1  0  0  0
 11 13  1  0  0  0
 13 14  1  0  0  0
 14 15  1  0  0  0
 15 16  1  0  0  0
 15 18  1  0  0  0
 16 17  1  0  0  0
M  END
> <minimizedAffinity>
-9.77480

$$$$
