CHEMBL270692


 39 43  0  0  0  0  0  0  0  0999 V2000
  -28.7273   -7.6185   -3.5306 C   0  0  0  0  0  0  0  0  0  0  0  0
  -29.8170   -7.2980   -2.8470 N   0  0  0  0  0  0  0  0  0  0  0  0
  -30.4701   -6.2315   -3.3064 C   0  0  0  0  0  0  0  0  0  0  0  0
  -30.1228   -5.4549   -4.3384 N   0  0  0  0  0  0  0  0  0  0  0  0
  -29.0764   -5.9099   -5.0248 C   0  0  0  0  0  0  0  0  0  0  0  0
  -28.3453   -6.9660   -4.6302 N   0  0  0  0  0  0  0  0  0  0  0  0
  -28.9588   -5.4958   -6.3975 N   0  0  0  0  0  0  0  0  0  0  0  0
  -28.3387   -6.1358   -7.4953 C   0  0  0  0  0  0  0  0  0  0  0  0
  -27.9463   -5.2389   -8.3766 N   0  0  0  0  0  0  0  0  0  0  0  0
  -28.3027   -4.0255   -7.8808 C   0  0  0  0  0  0  0  0  0  0  0  0
  -27.9175   -2.7586   -8.3310 C   0  0  0  0  0  0  0  0  0  0  0  0
  -28.3664   -1.6310   -7.6411 C   0  0  0  0  0  0  0  0  0  0  0  0
  -29.2620   -1.7602   -6.5815 C   0  0  0  0  0  0  0  0  0  0  0  0
  -29.6681   -3.0207   -6.1252 C   0  0  0  0  0  0  0  0  0  0  0  0
  -29.1092   -4.1493   -6.7576 C   0  0  0  0  0  0  0  0  0  0  0  0
  -28.1459   -7.4791   -7.6472 N   0  0  0  0  0  0  0  0  0  0  0  0
  -27.5245   -7.9931   -7.0324 H   0  0  0  0  0  0  0  0  0  0  0  0
  -29.0322   -8.3580   -8.3595 C   0  0  0  0  0  0  0  0  0  0  0  0
  -28.5206   -9.2031   -9.3810 C   0  0  0  0  0  0  0  0  0  0  0  0
  -27.1964   -8.9832  -10.0600 C   0  0  0  0  0  0  0  0  0  0  0  0
  -29.3100  -10.2575   -9.9110 C   0  0  0  0  0  0  0  0  0  0  0  0
  -30.5968  -10.4878   -9.4768 C   0  0  0  0  0  0  0  0  0  0  0  0
  -31.1405   -9.6244   -8.5341 C   0  0  0  0  0  0  0  0  0  0  0  0
  -30.3909   -8.5499   -7.9890 C   0  0  0  0  0  0  0  0  0  0  0  0
  -31.1543   -7.5950   -7.1091 C   0  0  0  0  0  0  0  0  0  0  0  0
  -27.9759   -8.7159   -3.0729 N   0  0  0  0  0  0  0  0  0  0  0  0
  -27.5311   -8.4252   -2.2063 H   0  0  0  0  0  0  0  0  0  0  0  0
  -26.7251  -10.8563   -5.8633 C   0  0  0  0  0  0  0  0  0  0  0  0
  -27.5615  -10.0569   -5.0756 C   0  0  0  0  0  0  0  0  0  0  0  0
  -27.0922   -9.4248   -3.9190 C   0  0  0  0  0  0  0  0  0  0  0  0
  -25.7357   -9.4877   -3.6139 C   0  0  0  0  0  0  0  0  0  0  0  0
  -24.8842  -10.3056   -4.3669 C   0  0  0  0  0  0  0  0  0  0  0  0
  -25.3677  -10.9815   -5.5093 C   0  0  0  0  0  0  0  0  0  0  0  0
  -28.5269  -12.1106   -6.8187 C   0  0  0  0  0  0  0  0  0  0  0  0
  -27.2015  -11.6035   -6.9093 O   0  0  0  0  0  0  0  0  0  0  0  0
  -23.5550  -10.4699   -4.0464 O   0  0  0  0  0  0  0  0  0  0  0  0
  -23.3174  -11.2275   -2.8618 C   0  0  0  0  0  0  0  0  0  0  0  0
  -24.4514  -11.7887   -6.1449 O   0  0  0  0  0  0  0  0  0  0  0  0
  -23.7567  -11.2269   -7.2513 C   0  0  0  0  0  0  0  0  0  0  0  0
 34 35  1  0  0  0
 35 28  1  0  0  0
 28 29  1  0  0  0
 28 33  2  0  0  0
 29 30  2  0  0  0
 30 26  1  0  0  0
 30 31  1  0  0  0
 26  1  1  0  0  0
 26 27  1  0  0  0
  1  2  1  0  0  0
  1  6  2  0  0  0
  2  3  2  0  0  0
  3  4  1  0  0  0
  4  5  2  0  0  0
  5  7  1  0  0  0
  5  6  1  0  0  0
  7  8  1  0  0  0
  7 15  1  0  0  0
  8 16  1  0  0  0
  8  9  2  0  0  0
 16 18  1  0  0  0
 16 17  1  0  0  0
 18 19  1  0  0  0
 18 24  2  0  0  0
 19 20  1  0  0  0
 19 21  2  0  0  0
 21 22  1  0  0  0
 22 23  2  0  0  0
 23 24  1  0  0  0
 24 25  1  0  0  0
  9 10  1  0  0  0
 10 11  1  0  0  0
 10 15  2  0  0  0
 11 12  2  0  0  0
 12 13  1  0  0  0
 13 14  2  0  0  0
 14 15  1  0  0  0
 31 32  2  0  0  0
 32 36  1  0  0  0
 32 33  1  0  0  0
 36 37  1  0  0  0
 33 38  1  0  0  0
 38 39  1  0  0  0
M  END
> <minimizedAffinity>
-7.88120

$$$$
