CHEMBL2348999


 33 37  0  0  0  0  0  0  0  0999 V2000
  -24.9760   10.3713  -16.3292 O   0  0  0  0  0  0  0  0  0  0  0  0
  -23.9740   10.9482  -17.1089 C   0  0  0  0  0  0  0  0  0  0  0  0
  -24.5538   12.0698  -17.8841 C   0  0  0  0  0  0  0  0  0  0  0  0
  -23.7466   12.6590  -18.7778 C   0  0  0  0  0  0  0  0  0  0  0  0
  -22.4084   12.2160  -18.8980 C   0  0  0  0  0  0  0  0  0  0  0  0
  -21.4322   12.5957  -19.6927 N   0  0  0  0  0  0  0  0  0  0  0  0
  -20.3567   11.8303  -19.3440 C   0  0  0  0  0  0  0  0  0  0  0  0
  -20.6774   10.9674  -18.3219 C   0  0  0  0  0  0  0  0  0  0  0  0
  -21.9979   11.2016  -18.0489 N   0  0  0  0  0  0  0  0  0  0  0  0
  -22.7500   10.5255  -17.1387 N   0  0  0  0  0  0  0  0  0  0  0  0
  -19.1141   11.9184  -19.9249 N   0  0  0  0  0  0  0  0  0  0  0  0
  -18.6431   11.0614  -20.8937 C   0  0  0  0  0  0  0  0  0  0  0  0
  -19.2000   10.0826  -21.3700 O   0  0  0  0  0  0  0  0  0  0  0  0
  -18.5286   12.6809  -19.6211 H   0  0  0  0  0  0  0  0  0  0  0  0
  -17.2890   11.4589  -21.4020 C   0  0  0  0  0  0  0  0  0  0  0  0
  -16.0646   10.8671  -20.7390 C   0  0  0  0  0  0  0  0  0  0  0  0
  -16.3676   12.3274  -20.5743 C   0  0  0  0  0  0  0  0  0  0  0  0
  -27.6180   11.8778  -14.1978 C   0  0  0  0  0  0  0  0  0  0  0  0
  -26.8245   12.5560  -13.2664 C   0  0  0  0  0  0  0  0  0  0  0  0
  -25.4310   12.5354  -13.3570 C   0  0  0  0  0  0  0  0  0  0  0  0
  -24.8088   11.8304  -14.3786 C   0  0  0  0  0  0  0  0  0  0  0  0
  -25.5858   11.1473  -15.3135 C   0  0  0  0  0  0  0  0  0  0  0  0
  -26.9841   11.1334  -15.2093 C   0  0  0  0  0  0  0  0  0  0  0  0
  -29.8646   11.1417  -13.3473 C   0  0  0  0  0  0  0  0  0  0  0  0
  -29.4633   10.3463  -12.5103 O   0  0  0  0  0  0  0  0  0  0  0  0
  -29.0365   11.9120  -14.1634 N   0  0  0  0  0  0  0  0  0  0  0  0
  -29.4688   12.6460  -14.7051 H   0  0  0  0  0  0  0  0  0  0  0  0
  -31.8751   12.1095  -11.1541 C   0  0  0  0  0  0  0  0  0  0  0  0
  -32.1463   11.7935  -12.5347 N   0  0  0  0  0  0  0  0  0  0  0  0
  -33.4036   11.9164  -12.9979 N   0  0  0  0  0  0  0  0  0  0  0  0
  -33.3974   11.5708  -14.2742 N   0  0  0  0  0  0  0  0  0  0  0  0
  -32.1204   11.2329  -14.6097 C   0  0  0  0  0  0  0  0  0  0  0  0
  -31.2809   11.3718  -13.5210 C   0  0  0  0  0  0  0  0  0  0  0  0
 28 29  1  0  0  0
 29 30  1  0  0  0
 29 33  1  0  0  0
 30 31  2  0  0  0
 31 32  1  0  0  0
 32 33  2  0  0  0
 33 24  1  0  0  0
 24 25  2  0  0  0
 24 26  1  0  0  0
 26 18  1  0  0  0
 26 27  1  0  0  0
 18 19  1  0  0  0
 18 23  2  0  0  0
 19 20  2  0  0  0
 20 21  1  0  0  0
 21 22  2  0  0  0
 22  1  1  0  0  0
 22 23  1  0  0  0
  1  2  1  0  0  0
  2  3  1  0  0  0
  2 10  2  0  0  0
  3  4  2  0  0  0
  4  5  1  0  0  0
  5  6  2  0  0  0
  5  9  1  0  0  0
  6  7  1  0  0  0
  7 11  1  0  0  0
  7  8  2  0  0  0
 11 12  1  0  0  0
 11 14  1  0  0  0
 12 13  2  0  0  0
 12 15  1  0  0  0
 15 16  1  0  0  0
 15 17  1  0  0  0
 16 17  1  0  0  0
  8  9  1  0  0  0
  9 10  1  0  0  0
M  END
> <minimizedAffinity>
-5.47216

$$$$
