CHEMBL3633689


 40 43  0  0  0  0  0  0  0  0999 V2000
  -29.8434   -7.9560   -5.4890 N   0  0  0  0  0  0  0  0  0  0  0  0
  -28.9940   -8.4065   -6.4912 C   0  0  0  0  0  0  0  0  0  0  0  0
  -28.0973   -7.7390   -7.0006 O   0  0  0  0  0  0  0  0  0  0  0  0
  -29.2162   -9.7071   -6.9162 N   0  0  0  0  0  0  0  0  0  0  0  0
  -30.5870   -8.5701   -5.1792 H   0  0  0  0  0  0  0  0  0  0  0  0
  -30.1749  -10.0296   -6.8786 H   0  0  0  0  0  0  0  0  0  0  0  0
  -29.5733   -3.9859   -3.9162 C   0  0  0  0  0  0  0  0  0  0  0  0
  -28.5843   -4.9181   -3.6560 C   0  0  0  0  0  0  0  0  0  0  0  0
  -28.6776   -6.2100   -4.1686 C   0  0  0  0  0  0  0  0  0  0  0  0
  -29.7827   -6.6553   -4.9123 C   0  0  0  0  0  0  0  0  0  0  0  0
  -30.8373   -5.7381   -5.0677 C   0  0  0  0  0  0  0  0  0  0  0  0
  -30.7298   -4.4110   -4.5825 C   0  0  0  0  0  0  0  0  0  0  0  0
  -29.4921   -2.6764   -3.4848 O   0  0  0  0  0  0  0  0  0  0  0  0
  -29.6242    0.3405   -5.5852 C   0  0  0  0  0  0  0  0  0  0  0  0
  -29.9543   -0.6554   -4.6359 C   0  0  0  0  0  0  0  0  0  0  0  0
  -29.0596   -1.6863   -4.3539 C   0  0  0  0  0  0  0  0  0  0  0  0
  -27.8301   -1.7054   -5.0117 C   0  0  0  0  0  0  0  0  0  0  0  0
  -27.5050   -0.6884   -5.9103 C   0  0  0  0  0  0  0  0  0  0  0  0
  -28.3981    0.3230   -6.2372 N   0  0  0  0  0  0  0  0  0  0  0  0
  -28.0562    1.1730   -7.1260 O   0  0  0  0  0  0  0  0  0  0  0  0
  -31.8104    2.6532   -7.6457 C   0  0  0  0  0  0  0  0  0  0  0  0
  -30.8423    1.6670   -7.2378 N   0  0  0  0  0  0  0  0  0  0  0  0
  -30.5957    1.4015   -5.9141 C   0  0  0  0  0  0  0  0  0  0  0  0
  -31.1878    1.9710   -4.9880 O   0  0  0  0  0  0  0  0  0  0  0  0
  -30.1131    1.3742   -7.8962 H   0  0  0  0  0  0  0  0  0  0  0  0
  -28.4176  -10.2273   -7.9962 C   0  0  0  0  0  0  0  0  0  0  0  0
  -28.9111  -10.0659   -9.2988 C   0  0  0  0  0  0  0  0  0  0  0  0
  -28.1630  -10.4164  -10.4377 C   0  0  0  0  0  0  0  0  0  0  0  0
  -26.8833  -10.9558  -10.2674 C   0  0  0  0  0  0  0  0  0  0  0  0
  -26.3860  -11.1643   -8.9858 C   0  0  0  0  0  0  0  0  0  0  0  0
  -27.1592  -10.8414   -7.8437 C   0  0  0  0  0  0  0  0  0  0  0  0
  -26.6825  -11.2839   -6.5847 N   0  0  0  0  0  0  0  0  0  0  0  0
  -25.5027  -10.9352   -5.9593 C   0  0  0  0  0  0  0  0  0  0  0  0
  -25.4797  -11.6813   -4.8131 C   0  0  0  0  0  0  0  0  0  0  0  0
  -26.6046  -12.4404   -4.7437 N   0  0  0  0  0  0  0  0  0  0  0  0
  -27.3400  -12.1881   -5.8192 N   0  0  0  0  0  0  0  0  0  0  0  0
  -28.7241  -10.1735  -11.8135 C   0  0  0  0  0  0  0  0  0  0  0  0
  -29.7590   -9.2898  -11.8270 F   0  0  0  0  0  0  0  0  0  0  0  0
  -27.7900   -9.6613  -12.6639 F   0  0  0  0  0  0  0  0  0  0  0  0
  -29.1893  -11.3069  -12.4089 F   0  0  0  0  0  0  0  0  0  0  0  0
 21 22  1  0  0  0
 22 23  1  0  0  0
 22 25  1  0  0  0
 23 24  2  0  0  0
 23 14  1  0  0  0
 14 15  1  0  0  0
 14 19  2  0  0  0
 15 16  2  0  0  0
 16 13  1  0  0  0
 16 17  1  0  0  0
 13  7  1  0  0  0
  7  8  1  0  0  0
  7 12  2  0  0  0
  8  9  2  0  0  0
  9 10  1  0  0  0
 10  1  1  0  0  0
 10 11  2  0  0  0
  1  2  1  0  0  0
  1  5  1  0  0  0
  2  3  2  0  0  0
  2  4  1  0  0  0
  4 26  1  0  0  0
  4  6  1  0  0  0
 26 27  1  0  0  0
 26 31  2  0  0  0
 27 28  2  0  0  0
 28 37  1  0  0  0
 28 29  1  0  0  0
 37 38  1  0  0  0
 37 39  1  0  0  0
 37 40  1  0  0  0
 29 30  2  0  0  0
 30 31  1  0  0  0
 31 32  1  0  0  0
 32 33  1  0  0  0
 32 36  1  0  0  0
 33 34  2  0  0  0
 34 35  1  0  0  0
 35 36  2  0  0  0
 11 12  1  0  0  0
 17 18  2  0  0  0
 18 19  1  0  0  0
 19 20  1  0  0  0
M  CHG 1  19   1
M  CHG 1  20  -1
M  END
> <minimizedAffinity>
-7.96695

$$$$
