CHEMBL3764045


 40 43  0  0  0  0  0  0  0  0999 V2000
  -29.7439   -7.6669   -5.6284 C   0  0  0  0  0  0  0  0  0  0  0  0
  -29.2856   -7.9052   -4.3322 C   0  0  0  0  0  0  0  0  0  0  0  0
  -28.1567   -8.7063   -4.1134 C   0  0  0  0  0  0  0  0  0  0  0  0
  -27.4382   -9.2600   -5.1844 C   0  0  0  0  0  0  0  0  0  0  0  0
  -27.9129   -9.0351   -6.4754 C   0  0  0  0  0  0  0  0  0  0  0  0
  -29.0653   -8.2674   -6.6894 C   0  0  0  0  0  0  0  0  0  0  0  0
  -29.4810   -8.1131   -7.9533 F   0  0  0  0  0  0  0  0  0  0  0  0
  -26.2945  -10.0190   -4.8496 N   0  0  0  0  0  0  0  0  0  0  0  0
  -25.4563   -9.4589   -4.6831 H   0  0  0  0  0  0  0  0  0  0  0  0
  -26.0570  -11.3777   -4.7770 C   0  0  0  0  0  0  0  0  0  0  0  0
  -25.8350  -12.3405   -3.4294 S   0  0  0  0  0  0  0  0  0  0  0  0
  -26.1209  -12.0447   -5.9991 N   0  0  0  0  0  0  0  0  0  0  0  0
  -25.4689  -11.7407   -7.1850 C   0  0  0  0  0  0  0  0  0  0  0  0
  -24.5057  -10.9716   -7.2401 O   0  0  0  0  0  0  0  0  0  0  0  0
  -26.7838  -12.8106   -6.0094 H   0  0  0  0  0  0  0  0  0  0  0  0
  -26.0747  -12.3568   -8.4292 C   0  0  0  0  0  0  0  0  0  0  0  0
  -27.1191  -11.5394   -9.1469 C   0  0  0  0  0  0  0  0  0  0  0  0
  -26.7417  -10.6815  -10.1919 C   0  0  0  0  0  0  0  0  0  0  0  0
  -27.7064  -10.0508  -10.9800 C   0  0  0  0  0  0  0  0  0  0  0  0
  -29.0593  -10.2680  -10.7334 C   0  0  0  0  0  0  0  0  0  0  0  0
  -29.4481  -11.0949   -9.6815 C   0  0  0  0  0  0  0  0  0  0  0  0
  -28.4845  -11.7270   -8.8897 C   0  0  0  0  0  0  0  0  0  0  0  0
  -30.8524   -6.8521   -5.7111 O   0  0  0  0  0  0  0  0  0  0  0  0
  -28.8593   -3.1354   -6.9281 C   0  0  0  0  0  0  0  0  0  0  0  0
  -29.4560   -4.3500   -6.5487 C   0  0  0  0  0  0  0  0  0  0  0  0
  -30.2436   -4.4800   -5.3884 C   0  0  0  0  0  0  0  0  0  0  0  0
  -30.9146   -5.6649   -5.0112 C   0  0  0  0  0  0  0  0  0  0  0  0
  -31.5950   -5.7276   -3.8001 C   0  0  0  0  0  0  0  0  0  0  0  0
  -31.6309   -4.5921   -3.0201 C   0  0  0  0  0  0  0  0  0  0  0  0
  -31.0429   -3.4254   -3.3697 N   0  0  0  0  0  0  0  0  0  0  0  0
  -30.3615   -3.3712   -4.5291 C   0  0  0  0  0  0  0  0  0  0  0  0
  -29.7273   -2.1867   -4.8885 C   0  0  0  0  0  0  0  0  0  0  0  0
  -28.9909   -2.0348   -6.0806 C   0  0  0  0  0  0  0  0  0  0  0  0
  -26.9892   -1.8530   -9.9611 C   0  0  0  0  0  0  0  0  0  0  0  0
  -27.7265   -1.9575   -8.7272 N   0  0  0  0  0  0  0  0  0  0  0  0
  -28.0390   -3.1860   -8.1673 C   0  0  0  0  0  0  0  0  0  0  0  0
  -27.7122   -4.2493   -8.6689 O   0  0  0  0  0  0  0  0  0  0  0  0
  -27.9270   -1.1003   -8.2218 H   0  0  0  0  0  0  0  0  0  0  0  0
  -28.4409   -0.7887   -6.1980 O   0  0  0  0  0  0  0  0  0  0  0  0
  -27.5333   -0.3609   -5.1914 C   0  0  0  0  0  0  0  0  0  0  0  0
 34 35  1  0  0  0
 35 36  1  0  0  0
 35 38  1  0  0  0
 36 37  2  0  0  0
 36 24  1  0  0  0
 24 25  1  0  0  0
 24 33  2  0  0  0
 25 26  2  0  0  0
 26 27  1  0  0  0
 26 31  1  0  0  0
 27 23  1  0  0  0
 27 28  2  0  0  0
 23  1  1  0  0  0
  1  2  1  0  0  0
  1  6  2  0  0  0
  2  3  2  0  0  0
  3  4  1  0  0  0
  4  8  1  0  0  0
  4  5  2  0  0  0
  8 10  1  0  0  0
  8  9  1  0  0  0
 10 11  2  0  0  0
 10 12  1  0  0  0
 12 13  1  0  0  0
 12 15  1  0  0  0
 13 14  2  0  0  0
 13 16  1  0  0  0
 16 17  1  0  0  0
 17 18  1  0  0  0
 17 22  2  0  0  0
 18 19  2  0  0  0
 19 20  1  0  0  0
 20 21  2  0  0  0
 21 22  1  0  0  0
  5  6  1  0  0  0
  6  7  1  0  0  0
 28 29  1  0  0  0
 29 30  2  0  0  0
 30 31  1  0  0  0
 31 32  2  0  0  0
 32 33  1  0  0  0
 33 39  1  0  0  0
 39 40  1  0  0  0
M  END
> <minimizedAffinity>
-8.42701

$$$$
