CHEMBL2086739


 31 35  0  0  0  0  0  0  0  0999 V2000
  -11.1202   -2.4185  -14.4891 N   0  0  0  0  0  0  0  0  0  0  0  0
  -11.7093   -1.2395  -14.9700 C   0  0  0  0  0  0  0  0  0  0  0  0
  -10.9936   -0.3534  -15.7893 C   0  0  0  0  0  0  0  0  0  0  0  0
  -11.6141    0.7652  -16.3561 C   0  0  0  0  0  0  0  0  0  0  0  0
  -12.9500    0.9643  -16.0638 C   0  0  0  0  0  0  0  0  0  0  0  0
  -13.6855    0.0984  -15.2552 C   0  0  0  0  0  0  0  0  0  0  0  0
  -13.0830   -1.0562  -14.7991 C   0  0  0  0  0  0  0  0  0  0  0  0
  -15.0548    0.6430  -15.1568 C   0  0  0  0  0  0  0  0  0  0  0  0
  -16.1143    0.2557  -14.3973 C   0  0  0  0  0  0  0  0  0  0  0  0
  -15.0645    1.8516  -16.0923 C   0  0  0  0  0  0  0  0  0  0  0  0
  -15.9839    2.5873  -16.3983 O   0  0  0  0  0  0  0  0  0  0  0  0
  -13.7613    1.9789  -16.5506 N   0  0  0  0  0  0  0  0  0  0  0  0
  -10.1390   -2.3045  -14.2585 H   0  0  0  0  0  0  0  0  0  0  0  0
  -11.6418   -2.8053  -13.7037 H   0  0  0  0  0  0  0  0  0  0  0  0
  -13.4841    2.7028  -17.1949 H   0  0  0  0  0  0  0  0  0  0  0  0
  -16.0257   -0.8216  -13.4435 C   0  0  0  0  0  0  0  0  0  0  0  0
  -15.7652   -0.8866  -12.1474 N   0  0  0  0  0  0  0  0  0  0  0  0
  -15.6181   -2.2240  -11.8502 C   0  0  0  0  0  0  0  0  0  0  0  0
  -15.1958   -2.8631  -10.6708 C   0  0  0  0  0  0  0  0  0  0  0  0
  -15.0551   -4.2607  -10.6782 C   0  0  0  0  0  0  0  0  0  0  0  0
  -15.3546   -5.0079  -11.8207 C   0  0  0  0  0  0  0  0  0  0  0  0
  -15.8137   -4.3923  -12.9876 C   0  0  0  0  0  0  0  0  0  0  0  0
  -15.9151   -3.0028  -12.9568 C   0  0  0  0  0  0  0  0  0  0  0  0
  -16.2826   -2.0950  -13.9096 N   0  0  0  0  0  0  0  0  0  0  0  0
  -16.5995   -2.3259  -14.8384 H   0  0  0  0  0  0  0  0  0  0  0  0
  -17.4219    0.9253  -14.6086 C   0  0  0  0  0  0  0  0  0  0  0  0
  -18.4429    0.2489  -15.2960 C   0  0  0  0  0  0  0  0  0  0  0  0
  -19.7077    0.8200  -15.4069 C   0  0  0  0  0  0  0  0  0  0  0  0
  -19.9552    2.0705  -14.8415 C   0  0  0  0  0  0  0  0  0  0  0  0
  -18.9415    2.7513  -14.1643 C   0  0  0  0  0  0  0  0  0  0  0  0
  -17.6781    2.1774  -14.0389 C   0  0  0  0  0  0  0  0  0  0  0  0
  1  2  1  0  0  0
  1 13  1  0  0  0
  1 14  1  0  0  0
  2  3  1  0  0  0
  2  7  2  0  0  0
  3  4  2  0  0  0
  4  5  1  0  0  0
  5  6  2  0  0  0
  5 12  1  0  0  0
  6  7  1  0  0  0
  6  8  1  0  0  0
  8  9  2  0  0  0
  8 10  1  0  0  0
  9 26  1  0  0  0
  9 16  1  0  0  0
 26 27  1  0  0  0
 26 31  2  0  0  0
 27 28  2  0  0  0
 28 29  1  0  0  0
 29 30  2  0  0  0
 30 31  1  0  0  0
 16 17  2  0  0  0
 16 24  1  0  0  0
 17 18  1  0  0  0
 18 19  1  0  0  0
 18 23  2  0  0  0
 19 20  2  0  0  0
 20 21  1  0  0  0
 21 22  2  0  0  0
 22 23  1  0  0  0
 23 24  1  0  0  0
 24 25  1  0  0  0
 10 11  2  0  0  0
 10 12  1  0  0  0
 12 15  1  0  0  0
M  END
> <minimizedAffinity>
-7.87872

$$$$
