CHEMBL3892776


 34 37  0  0  0  0  0  0  0  0999 V2000
  -27.3932   -1.6953   -9.7540 C   0  0  0  0  0  0  0  0  0  0  0  0
  -28.1811   -1.8219  -10.8970 C   0  0  0  0  0  0  0  0  0  0  0  0
  -27.5947   -1.7937  -12.1466 C   0  0  0  0  0  0  0  0  0  0  0  0
  -26.2689   -1.4630  -12.3120 C   0  0  0  0  0  0  0  0  0  0  0  0
  -25.8199   -1.6517  -13.5559 N   0  0  0  0  0  0  0  0  0  0  0  0
  -24.6240   -1.1311  -13.8533 C   0  0  0  0  0  0  0  0  0  0  0  0
  -23.9327   -0.3442  -12.9523 C   0  0  0  0  0  0  0  0  0  0  0  0
  -24.3081   -0.2994  -11.6222 N   0  0  0  0  0  0  0  0  0  0  0  0
  -25.5031   -0.9296  -11.2481 C   0  0  0  0  0  0  0  0  0  0  0  0
  -26.0875   -1.1493   -9.9363 C   0  0  0  0  0  0  0  0  0  0  0  0
  -23.0713    0.6697  -13.5682 C   0  0  0  0  0  0  0  0  0  0  0  0
  -23.1365    2.0742  -13.6875 C   0  0  0  0  0  0  0  0  0  0  0  0
  -22.0228    2.6074  -14.2165 N   0  0  0  0  0  0  0  0  0  0  0  0
  -21.2264    1.5422  -14.4503 N   0  0  0  0  0  0  0  0  0  0  0  0
  -21.7613    0.3866  -13.9469 C   0  0  0  0  0  0  0  0  0  0  0  0
  -20.1117    1.6636  -15.3943 C   0  0  0  0  0  0  0  0  0  0  0  0
  -19.4470    3.0424  -15.4653 C   0  0  0  0  0  0  0  0  0  0  0  0
  -19.0675    0.5923  -15.0727 C   0  0  0  0  0  0  0  0  0  0  0  0
  -27.9585   -2.3447   -8.5767 N   0  0  0  0  0  0  0  0  0  0  0  0
  -28.8067   -0.0538   -5.7229 C   0  0  0  0  0  0  0  0  0  0  0  0
  -28.6974   -0.9198   -4.6345 C   0  0  0  0  0  0  0  0  0  0  0  0
  -28.2714   -2.2283   -4.8307 C   0  0  0  0  0  0  0  0  0  0  0  0
  -27.9559   -2.6738   -6.1230 C   0  0  0  0  0  0  0  0  0  0  0  0
  -28.0608   -1.8437   -7.2509 C   0  0  0  0  0  0  0  0  0  0  0  0
  -28.4714   -0.5132   -7.0194 C   0  0  0  0  0  0  0  0  0  0  0  0
  -30.6002    1.4971   -6.0651 C   0  0  0  0  0  0  0  0  0  0  0  0
  -29.2614    1.2419   -5.6290 O   0  0  0  0  0  0  0  0  0  0  0  0
  -28.1554   -3.1819   -3.8541 O   0  0  0  0  0  0  0  0  0  0  0  0
  -27.6450   -4.4510   -4.2468 C   0  0  0  0  0  0  0  0  0  0  0  0
  -27.6135   -3.8173   -8.6988 C   0  0  0  0  0  0  0  0  0  0  0  0
  -28.5218   -4.8358   -7.9838 C   0  0  0  0  0  0  0  0  0  0  0  0
  -28.2569   -6.3166   -8.2355 C   0  0  0  0  0  0  0  0  0  0  0  0
  -27.1863   -6.5102   -9.1511 O   0  0  0  0  0  0  0  0  0  0  0  0
  -27.5485   -6.4388  -10.0490 H   0  0  0  0  0  0  0  0  0  0  0  0
 26 27  1  0  0  0
 27 20  1  0  0  0
 20 21  1  0  0  0
 20 25  2  0  0  0
 21 22  2  0  0  0
 22 28  1  0  0  0
 22 23  1  0  0  0
 28 29  1  0  0  0
 23 24  2  0  0  0
 24 19  1  0  0  0
 24 25  1  0  0  0
 19 30  1  0  0  0
 19  1  1  0  0  0
 30 31  1  0  0  0
 31 32  1  0  0  0
 32 33  1  0  0  0
 33 34  1  0  0  0
  1  2  1  0  0  0
  1 10  2  0  0  0
  2  3  2  0  0  0
  3  4  1  0  0  0
  4  5  1  0  0  0
  4  9  2  0  0  0
  5  6  2  0  0  0
  6  7  1  0  0  0
  7 11  1  0  0  0
  7  8  2  0  0  0
 11 12  1  0  0  0
 11 15  2  0  0  0
 12 13  2  0  0  0
 13 14  1  0  0  0
 14 16  1  0  0  0
 14 15  1  0  0  0
 16 17  1  0  0  0
 16 18  1  0  0  0
  8  9  1  0  0  0
  9 10  1  0  0  0
M  END
> <minimizedAffinity>
-8.95087

$$$$
