CHEMBL3706834


 31 33  0  0  0  0  0  0  0  0999 V2000
  -16.0927    3.0493  -16.1252 C   0  0  0  0  0  0  0  0  0  0  0  0
  -14.7561    2.7176  -15.8002 C   0  0  0  0  0  0  0  0  0  0  0  0
  -14.3870    1.5630  -15.1133 C   0  0  0  0  0  0  0  0  0  0  0  0
  -13.1004    1.3644  -14.7984 N   0  0  0  0  0  0  0  0  0  0  0  0
  -12.8120    0.2467  -14.1240 C   0  0  0  0  0  0  0  0  0  0  0  0
  -13.6861   -0.6947  -13.7543 N   0  0  0  0  0  0  0  0  0  0  0  0
  -14.9750   -0.4941  -14.0727 C   0  0  0  0  0  0  0  0  0  0  0  0
  -15.3916    0.6642  -14.7563 C   0  0  0  0  0  0  0  0  0  0  0  0
  -16.7318    0.9813  -15.0710 C   0  0  0  0  0  0  0  0  0  0  0  0
  -17.1012    2.1497  -15.7605 C   0  0  0  0  0  0  0  0  0  0  0  0
  -15.9488   -1.4479  -13.6660 N   0  0  0  0  0  0  0  0  0  0  0  0
  -16.8074   -1.3899  -14.2154 H   0  0  0  0  0  0  0  0  0  0  0  0
  -15.7143   -2.7515  -13.2408 C   0  0  0  0  0  0  0  0  0  0  0  0
  -15.5751   -3.8284  -14.0147 C   0  0  0  0  0  0  0  0  0  0  0  0
  -15.3572   -5.1820  -13.5068 C   0  0  0  0  0  0  0  0  0  0  0  0
  -15.2734   -6.0918  -14.3241 O   0  0  0  0  0  0  0  0  0  0  0  0
  -15.2576   -5.3681  -12.0291 C   0  0  0  0  0  0  0  0  0  0  0  0
  -15.3320   -4.3065  -11.2025 C   0  0  0  0  0  0  0  0  0  0  0  0
  -15.5771   -2.9277  -11.7528 C   0  0  0  0  0  0  0  0  0  0  0  0
  -15.6800   -1.9242  -11.0467 O   0  0  0  0  0  0  0  0  0  0  0  0
  -15.0486   -6.6229  -11.4488 O   0  0  0  0  0  0  0  0  0  0  0  0
  -13.7494   -7.1968  -11.5105 C   0  0  0  0  0  0  0  0  0  0  0  0
  -15.1983   -4.5632   -9.8362 O   0  0  0  0  0  0  0  0  0  0  0  0
  -13.9750   -4.2831   -9.1753 C   0  0  0  0  0  0  0  0  0  0  0  0
  -18.4615    2.2459  -15.8167 O   0  0  0  0  0  0  0  0  0  0  0  0
  -19.2952    1.3883  -15.0568 C   0  0  0  0  0  0  0  0  0  0  0  0
  -16.1502    4.2795  -16.7325 O   0  0  0  0  0  0  0  0  0  0  0  0
  -15.0346    4.6823  -17.4989 C   0  0  0  0  0  0  0  0  0  0  0  0
  -15.2764    4.6613  -18.9987 C   0  0  0  0  0  0  0  0  0  0  0  0
  -13.2453    3.4403  -19.2725 C   0  0  0  0  0  0  0  0  0  0  0  0
  -13.9697    4.6194  -19.5899 O   0  0  0  0  0  0  0  0  0  0  0  0
 30 31  1  0  0  0
 31 29  1  0  0  0
 29 28  1  0  0  0
 28 27  1  0  0  0
 27  1  1  0  0  0
  1  2  1  0  0  0
  1 10  2  0  0  0
  2  3  2  0  0  0
  3  4  1  0  0  0
  3  8  1  0  0  0
  4  5  2  0  0  0
  5  6  1  0  0  0
  6  7  2  0  0  0
  7 11  1  0  0  0
  7  8  1  0  0  0
 11 13  1  0  0  0
 11 12  1  0  0  0
 13 14  2  0  0  0
 13 19  1  0  0  0
 14 15  1  0  0  0
 15 16  2  0  0  0
 15 17  1  0  0  0
 17 21  1  0  0  0
 17 18  2  0  0  0
 21 22  1  0  0  0
 18 23  1  0  0  0
 18 19  1  0  0  0
 23 24  1  0  0  0
 19 20  2  0  0  0
  8  9  2  0  0  0
  9 10  1  0  0  0
 10 25  1  0  0  0
 25 26  1  0  0  0
M  END
> <minimizedAffinity>
-6.76055

$$$$
