CHEMBL3644028


 26 27  0  0  0  0  0  0  0  0999 V2000
  -17.0121    1.2621  -14.9240 C   0  0  0  0  0  0  0  0  0  0  0  0
  -18.2909    1.5013  -14.5320 N   0  0  0  0  0  0  0  0  0  0  0  0
  -18.8649    2.6328  -14.9879 C   0  0  0  0  0  0  0  0  0  0  0  0
  -18.2406    3.4791  -15.8207 N   0  0  0  0  0  0  0  0  0  0  0  0
  -17.0089    3.1630  -16.2411 C   0  0  0  0  0  0  0  0  0  0  0  0
  -16.3337    2.0446  -15.8300 C   0  0  0  0  0  0  0  0  0  0  0  0
  -14.9841    1.7916  -16.3900 C   0  0  0  0  0  0  0  0  0  0  0  0
  -14.5307    2.6895  -17.3052 F   0  0  0  0  0  0  0  0  0  0  0  0
  -14.0362    1.7578  -15.4099 F   0  0  0  0  0  0  0  0  0  0  0  0
  -14.9046    0.5724  -17.0005 F   0  0  0  0  0  0  0  0  0  0  0  0
  -20.1782    2.9426  -14.6151 N   0  0  0  0  0  0  0  0  0  0  0  0
  -20.3185    3.9263  -14.4521 H   0  0  0  0  0  0  0  0  0  0  0  0
  -21.2374    2.0520  -14.3635 C   0  0  0  0  0  0  0  0  0  0  0  0
  -22.4476    2.4946  -13.8080 C   0  0  0  0  0  0  0  0  0  0  0  0
  -23.4624    1.5840  -13.4552 C   0  0  0  0  0  0  0  0  0  0  0  0
  -23.2725    0.2134  -13.6725 C   0  0  0  0  0  0  0  0  0  0  0  0
  -22.0834   -0.2474  -14.2299 C   0  0  0  0  0  0  0  0  0  0  0  0
  -21.0825    0.6682  -14.5628 C   0  0  0  0  0  0  0  0  0  0  0  0
  -24.4612   -0.9673  -13.0712 S   0  0  0  0  0  0  0  0  0  0  0  0
  -23.5013   -2.2703  -12.3541 C   0  0  0  0  0  0  0  0  0  0  0  0
  -25.2069   -0.3322  -12.0018 O   0  0  0  0  0  0  0  0  0  0  0  0
  -25.1469   -1.5099  -14.2304 O   0  0  0  0  0  0  0  0  0  0  0  0
  -16.3417    0.1677  -14.4120 O   0  0  0  0  0  0  0  0  0  0  0  0
  -15.9050    0.2849  -13.0531 C   0  0  0  0  0  0  0  0  0  0  0  0
  -15.5773   -2.3047  -11.9757 C   0  0  0  0  0  0  0  0  0  0  0  0
  -15.7286   -1.1090  -12.4731 C   0  0  0  0  0  0  0  0  0  0  0  0
 25 26  3  0  0  0
 26 24  1  0  0  0
 24 23  1  0  0  0
 23  1  1  0  0  0
  1  2  1  0  0  0
  1  6  2  0  0  0
  2  3  2  0  0  0
  3 11  1  0  0  0
  3  4  1  0  0  0
 11 13  1  0  0  0
 11 12  1  0  0  0
 13 14  1  0  0  0
 13 18  2  0  0  0
 14 15  2  0  0  0
 15 16  1  0  0  0
 16 19  1  0  0  0
 16 17  2  0  0  0
 19 20  1  0  0  0
 19 21  2  0  0  0
 19 22  2  0  0  0
 17 18  1  0  0  0
  4  5  2  0  0  0
  5  6  1  0  0  0
  6  7  1  0  0  0
  7  8  1  0  0  0
  7  9  1  0  0  0
  7 10  1  0  0  0
M  END
> <minimizedAffinity>
-7.64919

$$$$
