CHEMBL3397916


 36 39  0  0  0  0  0  0  0  0999 V2000
  -28.0832   -1.1002   -6.0498 C   0  0  0  0  0  0  0  0  0  0  0  0
  -27.8233   -1.4671   -7.3661 C   0  0  0  0  0  0  0  0  0  0  0  0
  -28.2214   -2.7205   -7.8272 C   0  0  0  0  0  0  0  0  0  0  0  0
  -28.9018   -3.6164   -6.9793 C   0  0  0  0  0  0  0  0  0  0  0  0
  -29.1566   -3.3069   -5.6165 C   0  0  0  0  0  0  0  0  0  0  0  0
  -28.7060   -2.0280   -5.1845 C   0  0  0  0  0  0  0  0  0  0  0  0
  -28.8366   -1.6070   -3.8760 O   0  0  0  0  0  0  0  0  0  0  0  0
  -28.9419   -2.3757   -3.2942 H   0  0  0  0  0  0  0  0  0  0  0  0
  -29.8513   -4.2493   -4.6830 C   0  0  0  0  0  0  0  0  0  0  0  0
  -31.2337   -4.1636   -4.4258 C   0  0  0  0  0  0  0  0  0  0  0  0
  -31.8758   -5.0386   -3.5385 C   0  0  0  0  0  0  0  0  0  0  0  0
  -31.1676   -6.0738   -2.9379 C   0  0  0  0  0  0  0  0  0  0  0  0
  -29.8137   -6.2025   -3.2072 C   0  0  0  0  0  0  0  0  0  0  0  0
  -29.0829   -7.2328   -2.6924 O   0  0  0  0  0  0  0  0  0  0  0  0
  -29.1551   -5.2854   -4.0274 C   0  0  0  0  0  0  0  0  0  0  0  0
  -29.6765   -7.8141   -2.1891 H   0  0  0  0  0  0  0  0  0  0  0  0
  -29.4534   -4.8255   -7.6455 C   0  0  0  0  0  0  0  0  0  0  0  0
  -30.4992   -4.7066   -8.2759 O   0  0  0  0  0  0  0  0  0  0  0  0
  -28.7357   -5.9939   -7.4495 N   0  0  0  0  0  0  0  0  0  0  0  0
  -27.9961   -5.9855   -6.7591 H   0  0  0  0  0  0  0  0  0  0  0  0
  -29.1613   -7.2617   -7.9133 C   0  0  0  0  0  0  0  0  0  0  0  0
  -30.4244   -7.7841   -7.6221 C   0  0  0  0  0  0  0  0  0  0  0  0
  -30.7884   -9.0591   -8.0769 C   0  0  0  0  0  0  0  0  0  0  0  0
  -29.8908   -9.8157   -8.8260 C   0  0  0  0  0  0  0  0  0  0  0  0
  -28.6237   -9.3010   -9.1015 C   0  0  0  0  0  0  0  0  0  0  0  0
  -28.2740   -8.0120   -8.6861 C   0  0  0  0  0  0  0  0  0  0  0  0
  -30.1322  -11.0655   -9.3228 O   0  0  0  0  0  0  0  0  0  0  0  0
  -29.4591  -12.1285   -8.6382 C   0  0  0  0  0  0  0  0  0  0  0  0
  -30.1238  -12.3129   -7.2644 C   0  0  0  0  0  0  0  0  0  0  0  0
  -29.1673  -12.4640   -6.1485 N   0  0  0  0  0  0  0  0  0  0  0  0
  -29.6134  -11.8089   -4.9088 C   0  0  0  0  0  0  0  0  0  0  0  0
  -29.2034  -10.3616   -5.0764 C   0  0  0  0  0  0  0  0  0  0  0  0
  -27.8333  -10.4913   -5.7136 C   0  0  0  0  0  0  0  0  0  0  0  0
  -27.8813  -11.8128   -6.4786 C   0  0  0  0  0  0  0  0  0  0  0  0
  -28.4885    1.2599   -5.9524 C   0  0  0  0  0  0  0  0  0  0  0  0
  -27.7726    0.1176   -5.5011 O   0  0  0  0  0  0  0  0  0  0  0  0
 35 36  1  0  0  0
 36  1  1  0  0  0
  1  2  1  0  0  0
  1  6  2  0  0  0
  2  3  2  0  0  0
  3  4  1  0  0  0
  4 17  1  0  0  0
  4  5  2  0  0  0
 17 18  2  0  0  0
 17 19  1  0  0  0
 19 21  1  0  0  0
 19 20  1  0  0  0
 21 22  1  0  0  0
 21 26  2  0  0  0
 22 23  2  0  0  0
 23 24  1  0  0  0
 24 27  1  0  0  0
 24 25  2  0  0  0
 27 28  1  0  0  0
 28 29  1  0  0  0
 29 30  1  0  0  0
 30 31  1  0  0  0
 30 34  1  0  0  0
 31 32  1  0  0  0
 32 33  1  0  0  0
 33 34  1  0  0  0
 25 26  1  0  0  0
  5  9  1  0  0  0
  5  6  1  0  0  0
  9 10  1  0  0  0
  9 15  2  0  0  0
 10 11  2  0  0  0
 11 12  1  0  0  0
 12 13  2  0  0  0
 13 14  1  0  0  0
 13 15  1  0  0  0
 14 16  1  0  0  0
  6  7  1  0  0  0
  7  8  1  0  0  0
M  END
> <minimizedAffinity>
-7.96322

$$$$
