CHEMBL4574832


 29 31  0  0  0  0  0  0  0  0999 V2000
  -26.5341   -2.2563  -10.9171 C   0  0  0  0  0  0  0  0  0  0  0  0
  -27.3546   -1.9748  -11.9924 C   0  0  0  0  0  0  0  0  0  0  0  0
  -26.7715   -1.3109  -13.0485 C   0  0  0  0  0  0  0  0  0  0  0  0
  -25.4768   -0.9430  -13.0817 N   0  0  0  0  0  0  0  0  0  0  0  0
  -24.7539   -1.2564  -11.9933 C   0  0  0  0  0  0  0  0  0  0  0  0
  -25.2328   -1.9118  -10.9249 N   0  0  0  0  0  0  0  0  0  0  0  0
  -27.0485   -3.0259   -9.8357 N   0  0  0  0  0  0  0  0  0  0  0  0
  -27.6636   -3.7477  -10.2004 H   0  0  0  0  0  0  0  0  0  0  0  0
  -28.6910   -1.3396   -6.3009 C   0  0  0  0  0  0  0  0  0  0  0  0
  -28.8695   -2.6949   -6.5770 C   0  0  0  0  0  0  0  0  0  0  0  0
  -28.3482   -3.2470   -7.7501 C   0  0  0  0  0  0  0  0  0  0  0  0
  -27.6609   -2.4568   -8.6827 C   0  0  0  0  0  0  0  0  0  0  0  0
  -27.4505   -1.1043   -8.3773 C   0  0  0  0  0  0  0  0  0  0  0  0
  -27.9694   -0.5424   -7.1985 C   0  0  0  0  0  0  0  0  0  0  0  0
  -29.7862   -1.5299   -4.1972 O   0  0  0  0  0  0  0  0  0  0  0  0
  -29.2317   -0.8242   -5.0141 C   0  0  0  0  0  0  0  0  0  0  0  0
  -29.0464    0.5033   -4.8447 O   0  0  0  0  0  0  0  0  0  0  0  0
  -28.7447    0.9720   -5.6414 H   0  0  0  0  0  0  0  0  0  0  0  0
  -23.0108   -0.8932  -11.9758 S   0  0  0  0  0  0  0  0  0  0  0  0
  -22.7368   -0.3889  -13.7063 C   0  0  0  0  0  0  0  0  0  0  0  0
  -22.5724    1.1131  -13.8407 C   0  0  0  0  0  0  0  0  0  0  0  0
  -23.4241    1.9108  -13.4494 O   0  0  0  0  0  0  0  0  0  0  0  0
  -21.3159    1.6707  -14.4340 C   0  0  0  0  0  0  0  0  0  0  0  0
  -21.1067    3.0385  -14.6487 C   0  0  0  0  0  0  0  0  0  0  0  0
  -19.8745    3.4909  -15.1383 C   0  0  0  0  0  0  0  0  0  0  0  0
  -18.8578    2.5813  -15.4277 C   0  0  0  0  0  0  0  0  0  0  0  0
  -17.3380    3.1483  -15.9979 Cl  0  0  0  0  0  0  0  0  0  0  0  0
  -19.0602    1.2185  -15.2395 C   0  0  0  0  0  0  0  0  0  0  0  0
  -20.2862    0.7664  -14.7473 C   0  0  0  0  0  0  0  0  0  0  0  0
 15 16  2  0  0  0
 16 17  1  0  0  0
 16  9  1  0  0  0
 17 18  1  0  0  0
  9 10  1  0  0  0
  9 14  2  0  0  0
 10 11  2  0  0  0
 11 12  1  0  0  0
 12  7  1  0  0  0
 12 13  2  0  0  0
  7  1  1  0  0  0
  7  8  1  0  0  0
  1  2  1  0  0  0
  1  6  2  0  0  0
  2  3  2  0  0  0
  3  4  1  0  0  0
  4  5  2  0  0  0
  5 19  1  0  0  0
  5  6  1  0  0  0
 19 20  1  0  0  0
 20 21  1  0  0  0
 21 22  2  0  0  0
 21 23  1  0  0  0
 23 24  1  0  0  0
 23 29  2  0  0  0
 24 25  2  0  0  0
 25 26  1  0  0  0
 26 27  1  0  0  0
 26 28  2  0  0  0
 28 29  1  0  0  0
 13 14  1  0  0  0
M  END
> <minimizedAffinity>
-9.52499

$$$$
