CHEMBL3780780


 41 45  0  0  0  0  0  0  0  0999 V2000
  -28.9745   -4.5008   -5.3304 N   0  0  0  0  0  0  0  0  0  0  0  0
  -29.9225   -4.4387   -4.9757 H   0  0  0  0  0  0  0  0  0  0  0  0
  -27.5867   -8.3365   -4.4625 C   0  0  0  0  0  0  0  0  0  0  0  0
  -26.8920   -7.2405   -4.1063 N   0  0  0  0  0  0  0  0  0  0  0  0
  -27.3287   -6.0069   -4.4793 N   0  0  0  0  0  0  0  0  0  0  0  0
  -28.4759   -5.8263   -5.1671 C   0  0  0  0  0  0  0  0  0  0  0  0
  -29.1861   -6.9516   -5.6552 C   0  0  0  0  0  0  0  0  0  0  0  0
  -30.3585   -6.8741   -6.4538 C   0  0  0  0  0  0  0  0  0  0  0  0
  -30.9955   -8.0211   -6.9382 C   0  0  0  0  0  0  0  0  0  0  0  0
  -30.4959   -9.2758   -6.6219 C   0  0  0  0  0  0  0  0  0  0  0  0
  -29.3721   -9.3860   -5.8069 C   0  0  0  0  0  0  0  0  0  0  0  0
  -28.7027   -8.2449   -5.3101 C   0  0  0  0  0  0  0  0  0  0  0  0
  -27.1508   -9.6076   -3.7647 C   0  0  0  0  0  0  0  0  0  0  0  0
  -23.0789  -10.9925   -4.3281 C   0  0  0  0  0  0  0  0  0  0  0  0
  -23.6471  -10.9931   -3.0543 C   0  0  0  0  0  0  0  0  0  0  0  0
  -24.9596  -10.5490   -2.8568 C   0  0  0  0  0  0  0  0  0  0  0  0
  -25.7180  -10.0632   -3.9263 C   0  0  0  0  0  0  0  0  0  0  0  0
  -25.1524  -10.1010   -5.2121 C   0  0  0  0  0  0  0  0  0  0  0  0
  -23.8456  -10.5597   -5.4094 C   0  0  0  0  0  0  0  0  0  0  0  0
  -21.4912  -11.4809   -6.0178 C   0  0  0  0  0  0  0  0  0  0  0  0
  -21.8047  -11.3908   -4.6315 O   0  0  0  0  0  0  0  0  0  0  0  0
  -28.7961   -3.6848   -6.4802 C   0  0  0  0  0  0  0  0  0  0  0  0
  -29.3407   -4.0776   -7.7013 C   0  0  0  0  0  0  0  0  0  0  0  0
  -29.1054   -3.3332   -8.8680 C   0  0  0  0  0  0  0  0  0  0  0  0
  -28.3361   -2.1647   -8.8598 C   0  0  0  0  0  0  0  0  0  0  0  0
  -27.8897   -1.7067   -7.6236 C   0  0  0  0  0  0  0  0  0  0  0  0
  -28.1421   -2.4436   -6.4503 C   0  0  0  0  0  0  0  0  0  0  0  0
  -27.9826   -1.4479  -10.0396 N   0  0  0  0  0  0  0  0  0  0  0  0
  -26.7110   -1.4026  -10.5908 C   0  0  0  0  0  0  0  0  0  0  0  0
  -25.7348   -2.0042  -10.1531 O   0  0  0  0  0  0  0  0  0  0  0  0
  -26.6110   -0.5565  -11.6962 N   0  0  0  0  0  0  0  0  0  0  0  0
  -28.7240   -0.9512  -10.5128 H   0  0  0  0  0  0  0  0  0  0  0  0
  -27.1553    0.2918  -11.6222 H   0  0  0  0  0  0  0  0  0  0  0  0
  -25.3376   -0.4384  -12.3240 C   0  0  0  0  0  0  0  0  0  0  0  0
  -24.3740    0.4429  -11.8164 C   0  0  0  0  0  0  0  0  0  0  0  0
  -23.1606    0.6498  -12.4891 C   0  0  0  0  0  0  0  0  0  0  0  0
  -22.8912   -0.0210  -13.6880 C   0  0  0  0  0  0  0  0  0  0  0  0
  -23.8545   -0.9176  -14.1847 C   0  0  0  0  0  0  0  0  0  0  0  0
  -25.0619   -1.1429  -13.4967 C   0  0  0  0  0  0  0  0  0  0  0  0
  -21.6573    0.2137  -14.3967 C   0  0  0  0  0  0  0  0  0  0  0  0
  -20.6629    0.4110  -14.9740 N   0  0  0  0  0  0  0  0  0  0  0  0
 20 21  1  0  0  0
 21 14  1  0  0  0
 14 15  1  0  0  0
 14 19  2  0  0  0
 15 16  2  0  0  0
 16 17  1  0  0  0
 17 13  1  0  0  0
 17 18  2  0  0  0
 13  3  1  0  0  0
  3  4  1  0  0  0
  3 12  2  0  0  0
  4  5  2  0  0  0
  5  6  1  0  0  0
  6  1  1  0  0  0
  6  7  2  0  0  0
  1 22  1  0  0  0
  1  2  1  0  0  0
 22 23  1  0  0  0
 22 27  2  0  0  0
 23 24  2  0  0  0
 24 25  1  0  0  0
 25 28  1  0  0  0
 25 26  2  0  0  0
 28 29  1  0  0  0
 28 32  1  0  0  0
 29 30  2  0  0  0
 29 31  1  0  0  0
 31 34  1  0  0  0
 31 33  1  0  0  0
 34 35  1  0  0  0
 34 39  2  0  0  0
 35 36  2  0  0  0
 36 37  1  0  0  0
 37 40  1  0  0  0
 37 38  2  0  0  0
 40 41  3  0  0  0
 38 39  1  0  0  0
 26 27  1  0  0  0
  7  8  1  0  0  0
  7 12  1  0  0  0
  8  9  2  0  0  0
  9 10  1  0  0  0
 10 11  2  0  0  0
 11 12  1  0  0  0
 18 19  1  0  0  0
M  END
> <minimizedAffinity>
-9.27039

$$$$
