CHEMBL1079424


 38 42  0  0  0  0  0  0  0  0999 V2000
  -29.6505   -6.5058   -7.1373 N   0  0  0  0  0  0  0  0  0  0  0  0
  -30.6567   -6.5261   -6.9792 H   0  0  0  0  0  0  0  0  0  0  0  0
  -29.1517   -7.4393   -8.0007 C   0  0  0  0  0  0  0  0  0  0  0  0
  -27.9862   -7.4102   -8.6159 N   0  0  0  0  0  0  0  0  0  0  0  0
  -27.8721   -8.5732   -9.3089 C   0  0  0  0  0  0  0  0  0  0  0  0
  -26.8090   -9.0012  -10.1169 C   0  0  0  0  0  0  0  0  0  0  0  0
  -26.8877  -10.2509  -10.7344 C   0  0  0  0  0  0  0  0  0  0  0  0
  -28.0286  -11.0352  -10.5897 C   0  0  0  0  0  0  0  0  0  0  0  0
  -29.1145  -10.6020   -9.8172 C   0  0  0  0  0  0  0  0  0  0  0  0
  -28.9944   -9.3744   -9.1372 C   0  0  0  0  0  0  0  0  0  0  0  0
  -29.8140   -8.6434   -8.2732 N   0  0  0  0  0  0  0  0  0  0  0  0
  -31.0770   -9.0426   -7.7487 C   0  0  0  0  0  0  0  0  0  0  0  0
  -31.2756  -10.3674   -7.4106 C   0  0  0  0  0  0  0  0  0  0  0  0
  -32.5115  -10.7041   -6.9114 C   0  0  0  0  0  0  0  0  0  0  0  0
  -32.7389  -11.9935   -6.4394 N   0  0  0  0  0  0  0  0  0  0  0  0
  -33.4994   -9.8159   -6.7770 N   0  0  0  0  0  0  0  0  0  0  0  0
  -33.2119   -8.5516   -7.1185 C   0  0  0  0  0  0  0  0  0  0  0  0
  -32.0298   -8.0979   -7.5627 N   0  0  0  0  0  0  0  0  0  0  0  0
  -32.4728  -12.7182   -7.0952 H   0  0  0  0  0  0  0  0  0  0  0  0
  -33.7107  -12.0656   -6.1519 H   0  0  0  0  0  0  0  0  0  0  0  0
  -28.2210   -3.0690   -7.7015 C   0  0  0  0  0  0  0  0  0  0  0  0
  -28.2880   -2.5501   -6.4127 C   0  0  0  0  0  0  0  0  0  0  0  0
  -28.5970   -3.3931   -5.3499 C   0  0  0  0  0  0  0  0  0  0  0  0
  -28.9138   -4.7461   -5.5682 C   0  0  0  0  0  0  0  0  0  0  0  0
  -29.0315   -5.6418   -4.3643 C   0  0  0  0  0  0  0  0  0  0  0  0
  -29.0795   -5.2228   -6.8902 C   0  0  0  0  0  0  0  0  0  0  0  0
  -28.6289   -4.3866   -7.9321 C   0  0  0  0  0  0  0  0  0  0  0  0
  -27.0786   -2.8048   -9.8392 N   0  0  0  0  0  0  0  0  0  0  0  0
  -27.7479   -2.1793   -8.7987 C   0  0  0  0  0  0  0  0  0  0  0  0
  -27.9434   -0.9748   -8.6764 O   0  0  0  0  0  0  0  0  0  0  0  0
  -26.9513   -3.8082   -9.7767 H   0  0  0  0  0  0  0  0  0  0  0  0
  -23.5021   -0.1893  -12.1187 C   0  0  0  0  0  0  0  0  0  0  0  0
  -24.8128   -0.9144  -12.1217 C   0  0  0  0  0  0  0  0  0  0  0  0
  -25.2752   -1.5259  -10.9623 C   0  0  0  0  0  0  0  0  0  0  0  0
  -26.5081   -2.1765  -10.9750 C   0  0  0  0  0  0  0  0  0  0  0  0
  -27.2303   -2.2018  -12.1674 C   0  0  0  0  0  0  0  0  0  0  0  0
  -26.6877   -1.5783  -13.2818 C   0  0  0  0  0  0  0  0  0  0  0  0
  -25.5015   -0.9370  -13.2824 N   0  0  0  0  0  0  0  0  0  0  0  0
 32 33  1  0  0  0
 33 34  1  0  0  0
 33 38  2  0  0  0
 34 35  2  0  0  0
 35 28  1  0  0  0
 35 36  1  0  0  0
 28 29  1  0  0  0
 28 31  1  0  0  0
 29 30  2  0  0  0
 29 21  1  0  0  0
 21 22  1  0  0  0
 21 27  2  0  0  0
 22 23  2  0  0  0
 23 24  1  0  0  0
 24 25  1  0  0  0
 24 26  2  0  0  0
 26  1  1  0  0  0
 26 27  1  0  0  0
  1  3  1  0  0  0
  1  2  1  0  0  0
  3  4  2  0  0  0
  3 11  1  0  0  0
  4  5  1  0  0  0
  5  6  1  0  0  0
  5 10  2  0  0  0
  6  7  2  0  0  0
  7  8  1  0  0  0
  8  9  2  0  0  0
  9 10  1  0  0  0
 10 11  1  0  0  0
 11 12  1  0  0  0
 12 13  1  0  0  0
 12 18  2  0  0  0
 13 14  2  0  0  0
 14 15  1  0  0  0
 14 16  1  0  0  0
 15 19  1  0  0  0
 15 20  1  0  0  0
 16 17  2  0  0  0
 17 18  1  0  0  0
 36 37  2  0  0  0
 37 38  1  0  0  0
M  END
> <minimizedAffinity>
-10.22305

$$$$
