CHEMBL3912858


 27 30  0  0  0  0  0  0  0  0999 V2000
  -16.0337    2.2331  -15.9471 C   0  0  0  0  0  0  0  0  0  0  0  0
  -16.0397    1.5008  -14.7513 C   0  0  0  0  0  0  0  0  0  0  0  0
  -17.2429    1.2321  -14.0534 C   0  0  0  0  0  0  0  0  0  0  0  0
  -18.4085    1.9030  -14.4678 C   0  0  0  0  0  0  0  0  0  0  0  0
  -19.7984    2.0385  -14.1129 C   0  0  0  0  0  0  0  0  0  0  0  0
  -20.0721    3.3559  -14.2274 N   0  0  0  0  0  0  0  0  0  0  0  0
  -19.3352    3.6734  -15.3089 N   0  0  0  0  0  0  0  0  0  0  0  0
  -18.2727    2.8375  -15.4893 C   0  0  0  0  0  0  0  0  0  0  0  0
  -17.1893    2.8970  -16.3589 C   0  0  0  0  0  0  0  0  0  0  0  0
  -19.5279    4.5473  -15.7886 H   0  0  0  0  0  0  0  0  0  0  0  0
  -20.9201    1.2151  -14.5506 C   0  0  0  0  0  0  0  0  0  0  0  0
  -22.1109    1.2017  -13.9165 C   0  0  0  0  0  0  0  0  0  0  0  0
  -22.8138   -0.0447  -13.5236 C   0  0  0  0  0  0  0  0  0  0  0  0
  -22.6112   -0.6381  -12.2563 C   0  0  0  0  0  0  0  0  0  0  0  0
  -23.4807   -1.6222  -11.7698 C   0  0  0  0  0  0  0  0  0  0  0  0
  -24.5617   -2.0356  -12.5209 C   0  0  0  0  0  0  0  0  0  0  0  0
  -24.7583   -1.4842  -13.7858 C   0  0  0  0  0  0  0  0  0  0  0  0
  -23.8975   -0.4883  -14.2817 C   0  0  0  0  0  0  0  0  0  0  0  0
  -14.9501    2.5185  -16.7497 O   0  0  0  0  0  0  0  0  0  0  0  0
  -11.9558    4.6858  -13.8398 O   0  0  0  0  0  0  0  0  0  0  0  0
  -12.6214    4.7021  -15.0293 C   0  0  0  0  0  0  0  0  0  0  0  0
  -12.4797    5.7612  -15.9215 C   0  0  0  0  0  0  0  0  0  0  0  0
  -13.2179    5.7635  -17.1076 C   0  0  0  0  0  0  0  0  0  0  0  0
  -14.0801    4.7055  -17.3962 C   0  0  0  0  0  0  0  0  0  0  0  0
  -14.1503    3.6094  -16.5372 C   0  0  0  0  0  0  0  0  0  0  0  0
  -13.4502    3.6277  -15.3288 C   0  0  0  0  0  0  0  0  0  0  0  0
  -11.4455    5.5084  -13.7585 H   0  0  0  0  0  0  0  0  0  0  0  0
 20 21  1  0  0  0
 20 27  1  0  0  0
 21 22  1  0  0  0
 21 26  2  0  0  0
 22 23  2  0  0  0
 23 24  1  0  0  0
 24 25  2  0  0  0
 25 19  1  0  0  0
 25 26  1  0  0  0
 19  1  1  0  0  0
  1  2  1  0  0  0
  1  9  2  0  0  0
  2  3  2  0  0  0
  3  4  1  0  0  0
  4  5  1  0  0  0
  4  8  2  0  0  0
  5 11  1  0  0  0
  5  6  2  0  0  0
 11 12  2  0  0  0
 12 13  1  0  0  0
 13 14  1  0  0  0
 13 18  2  0  0  0
 14 15  2  0  0  0
 15 16  1  0  0  0
 16 17  2  0  0  0
 17 18  1  0  0  0
  6  7  1  0  0  0
  7  8  1  0  0  0
  7 10  1  0  0  0
  8  9  1  0  0  0
M  END
> <minimizedAffinity>
-9.76552

$$$$
