CHEMBL3660285


 46 50  0  0  0  0  0  0  0  0999 V2000
  -14.8515    2.5422  -15.8769 C   0  0  0  0  0  0  0  0  0  0  0  0
  -14.3250    3.7756  -15.5154 C   0  0  0  0  0  0  0  0  0  0  0  0
  -13.1352    3.7957  -14.8079 C   0  0  0  0  0  0  0  0  0  0  0  0
  -12.4792    2.6860  -14.3970 N   0  0  0  0  0  0  0  0  0  0  0  0
  -13.0507    1.4980  -14.7035 C   0  0  0  0  0  0  0  0  0  0  0  0
  -14.2219    1.3828  -15.4422 C   0  0  0  0  0  0  0  0  0  0  0  0
  -12.3396    0.3335  -14.1957 C   0  0  0  0  0  0  0  0  0  0  0  0
  -12.6184   -0.4909  -13.1259 C   0  0  0  0  0  0  0  0  0  0  0  0
  -11.6785   -1.5609  -13.0964 C   0  0  0  0  0  0  0  0  0  0  0  0
  -10.7584   -1.2673  -14.0887 C   0  0  0  0  0  0  0  0  0  0  0  0
  -11.1678   -0.1392  -14.7485 N   0  0  0  0  0  0  0  0  0  0  0  0
  -10.6987    0.3103  -15.5263 H   0  0  0  0  0  0  0  0  0  0  0  0
  -11.6018   -2.6949  -12.1722 C   0  0  0  0  0  0  0  0  0  0  0  0
  -10.6966   -2.7571  -11.3419 O   0  0  0  0  0  0  0  0  0  0  0  0
  -12.6069   -3.6690  -12.2429 N   0  0  0  0  0  0  0  0  0  0  0  0
  -12.7689   -4.5849  -11.1196 C   0  0  0  0  0  0  0  0  0  0  0  0
  -12.6692   -6.0381  -11.5717 C   0  0  0  0  0  0  0  0  0  0  0  0
  -13.6392   -6.3659  -12.7232 C   0  0  0  0  0  0  0  0  0  0  0  0
  -13.4109   -5.3643  -13.8634 C   0  0  0  0  0  0  0  0  0  0  0  0
  -13.4740   -3.9112  -13.3977 C   0  0  0  0  0  0  0  0  0  0  0  0
  -15.1195   -6.3782  -12.2960 C   0  0  0  0  0  0  0  0  0  0  0  0
  -16.0658   -6.2356  -13.4661 C   0  0  0  0  0  0  0  0  0  0  0  0
  -16.8638   -5.3243  -13.6107 O   0  0  0  0  0  0  0  0  0  0  0  0
  -15.9700   -7.2580  -14.3459 O   0  0  0  0  0  0  0  0  0  0  0  0
  -15.3132   -7.9387  -14.1085 H   0  0  0  0  0  0  0  0  0  0  0  0
  -16.0075    2.3750  -16.6074 O   0  0  0  0  0  0  0  0  0  0  0  0
  -19.6732    2.0784  -14.6237 C   0  0  0  0  0  0  0  0  0  0  0  0
  -18.7228    1.0643  -14.4598 C   0  0  0  0  0  0  0  0  0  0  0  0
  -17.4838    1.1441  -15.0940 C   0  0  0  0  0  0  0  0  0  0  0  0
  -17.2052    2.2131  -15.9456 C   0  0  0  0  0  0  0  0  0  0  0  0
  -18.1515    3.2299  -16.1090 C   0  0  0  0  0  0  0  0  0  0  0  0
  -19.3969    3.1520  -15.4710 C   0  0  0  0  0  0  0  0  0  0  0  0
  -22.9113    1.0986  -13.3337 N   0  0  0  0  0  0  0  0  0  0  0  0
  -21.7248    0.9515  -14.0230 C   0  0  0  0  0  0  0  0  0  0  0  0
  -21.3890   -0.0425  -14.6515 O   0  0  0  0  0  0  0  0  0  0  0  0
  -20.8802    2.0517  -13.8777 N   0  0  0  0  0  0  0  0  0  0  0  0
  -22.9827    1.8843  -12.7077 H   0  0  0  0  0  0  0  0  0  0  0  0
  -20.8260    2.4110  -12.9361 H   0  0  0  0  0  0  0  0  0  0  0  0
  -26.0178   -1.5149  -10.5009 C   0  0  0  0  0  0  0  0  0  0  0  0
  -25.4603   -1.1867  -11.8561 C   0  0  0  0  0  0  0  0  0  0  0  0
  -25.9067   -1.8897  -12.9794 C   0  0  0  0  0  0  0  0  0  0  0  0
  -25.4189   -1.5658  -14.2389 C   0  0  0  0  0  0  0  0  0  0  0  0
  -24.4707   -0.5572  -14.3833 C   0  0  0  0  0  0  0  0  0  0  0  0
  -24.1633   -0.2178  -15.6413 F   0  0  0  0  0  0  0  0  0  0  0  0
  -23.9472    0.1224  -13.2727 C   0  0  0  0  0  0  0  0  0  0  0  0
  -24.4838   -0.1811  -12.0091 C   0  0  0  0  0  0  0  0  0  0  0  0
 39 40  1  0  0  0
 40 41  1  0  0  0
 40 46  2  0  0  0
 41 42  2  0  0  0
 42 43  1  0  0  0
 43 44  1  0  0  0
 43 45  2  0  0  0
 45 33  1  0  0  0
 45 46  1  0  0  0
 33 34  1  0  0  0
 33 37  1  0  0  0
 34 35  2  0  0  0
 34 36  1  0  0  0
 36 27  1  0  0  0
 36 38  1  0  0  0
 27 28  1  0  0  0
 27 32  2  0  0  0
 28 29  2  0  0  0
 29 30  1  0  0  0
 30 26  1  0  0  0
 30 31  2  0  0  0
 26  1  1  0  0  0
  1  2  1  0  0  0
  1  6  2  0  0  0
  2  3  2  0  0  0
  3  4  1  0  0  0
  4  5  2  0  0  0
  5  7  1  0  0  0
  5  6  1  0  0  0
  7  8  2  0  0  0
  7 11  1  0  0  0
  8  9  1  0  0  0
  9 13  1  0  0  0
  9 10  2  0  0  0
 13 14  2  0  0  0
 13 15  1  0  0  0
 15 16  1  0  0  0
 15 20  1  0  0  0
 16 17  1  0  0  0
 17 18  1  0  0  0
 18 21  1  0  0  0
 18 19  1  0  0  0
 21 22  1  0  0  0
 22 23  2  0  0  0
 22 24  1  0  0  0
 24 25  1  0  0  0
 19 20  1  0  0  0
 10 11  1  0  0  0
 11 12  1  0  0  0
 31 32  1  0  0  0
M  END
> <minimizedAffinity>
-9.94689

$$$$
