CHEMBL2430256


 34 37  0  0  0  0  0  0  0  0999 V2000
  -29.2299   -7.7760   -6.5856 C   0  0  0  0  0  0  0  0  0  0  0  0
  -28.5333   -7.3416   -7.7099 C   0  0  0  0  0  0  0  0  0  0  0  0
  -28.0126   -8.0780   -8.8939 C   0  0  0  0  0  0  0  0  0  0  0  0
  -28.4132   -5.9577   -7.6246 N   0  0  0  0  0  0  0  0  0  0  0  0
  -29.0343   -5.4925   -6.4912 C   0  0  0  0  0  0  0  0  0  0  0  0
  -29.5342   -6.6013   -5.8360 C   0  0  0  0  0  0  0  0  0  0  0  0
  -30.2912   -6.5681   -4.5578 C   0  0  0  0  0  0  0  0  0  0  0  0
  -30.4537   -5.1923   -3.9438 C   0  0  0  0  0  0  0  0  0  0  0  0
  -29.9267   -3.9817   -4.7146 C   0  0  0  0  0  0  0  0  0  0  0  0
  -29.1784   -4.1378   -6.0343 C   0  0  0  0  0  0  0  0  0  0  0  0
  -28.7433   -2.9940   -6.6349 C   0  0  0  0  0  0  0  0  0  0  0  0
  -27.9870   -2.8689   -7.9488 C   0  0  0  0  0  0  0  0  0  0  0  0
  -27.6327   -3.7431   -8.7140 O   0  0  0  0  0  0  0  0  0  0  0  0
  -27.7588   -1.5141   -8.1284 N   0  0  0  0  0  0  0  0  0  0  0  0
  -28.2765   -0.7574   -7.0878 C   0  0  0  0  0  0  0  0  0  0  0  0
  -28.1946    0.6271   -6.9869 C   0  0  0  0  0  0  0  0  0  0  0  0
  -28.7671    1.2424   -5.8742 C   0  0  0  0  0  0  0  0  0  0  0  0
  -29.4044    0.4669   -4.9090 C   0  0  0  0  0  0  0  0  0  0  0  0
  -29.4717   -0.9226   -5.0434 C   0  0  0  0  0  0  0  0  0  0  0  0
  -30.1168   -1.5510   -4.0555 F   0  0  0  0  0  0  0  0  0  0  0  0
  -28.9006   -1.5736   -6.1380 C   0  0  0  0  0  0  0  0  0  0  0  0
  -27.9663   -5.3746   -8.3253 H   0  0  0  0  0  0  0  0  0  0  0  0
  -27.2692   -1.1496   -8.9311 H   0  0  0  0  0  0  0  0  0  0  0  0
  -30.3409   -9.8408   -7.1790 N   0  0  0  0  0  0  0  0  0  0  0  0
  -29.6678   -9.1262   -6.2170 C   0  0  0  0  0  0  0  0  0  0  0  0
  -29.3996   -9.6198   -5.1228 O   0  0  0  0  0  0  0  0  0  0  0  0
  -30.2443   -9.5509   -8.1444 H   0  0  0  0  0  0  0  0  0  0  0  0
  -30.6948  -11.2168   -6.9071 C   0  0  0  0  0  0  0  0  0  0  0  0
  -29.5851  -12.2072   -7.2857 C   0  0  0  0  0  0  0  0  0  0  0  0
  -28.5326  -11.6548   -8.1717 N   0  0  0  0  0  0  0  0  0  0  0  0
  -26.4990  -10.7090   -7.0001 C   0  0  0  0  0  0  0  0  0  0  0  0
  -27.1850  -11.9155   -7.6326 C   0  0  0  0  0  0  0  0  0  0  0  0
  -28.7210  -12.1193   -9.5587 C   0  0  0  0  0  0  0  0  0  0  0  0
  -28.4732  -11.0907  -10.6611 C   0  0  0  0  0  0  0  0  0  0  0  0
 31 32  1  0  0  0
 32 30  1  0  0  0
 30 33  1  0  0  0
 30 29  1  0  0  0
 33 34  1  0  0  0
 29 28  1  0  0  0
 28 24  1  0  0  0
 24 25  1  0  0  0
 24 27  1  0  0  0
 25 26  2  0  0  0
 25  1  1  0  0  0
  1  2  2  0  0  0
  1  6  1  0  0  0
  2  3  1  0  0  0
  2  4  1  0  0  0
  4  5  1  0  0  0
  4 22  1  0  0  0
  5  6  2  0  0  0
  5 10  1  0  0  0
  6  7  1  0  0  0
  7  8  1  0  0  0
  8  9  1  0  0  0
  9 10  1  0  0  0
 10 11  2  0  0  0
 11 12  1  0  0  0
 11 21  1  0  0  0
 12 13  2  0  0  0
 12 14  1  0  0  0
 14 15  1  0  0  0
 14 23  1  0  0  0
 15 16  1  0  0  0
 15 21  2  0  0  0
 16 17  2  0  0  0
 17 18  1  0  0  0
 18 19  2  0  0  0
 19 20  1  0  0  0
 19 21  1  0  0  0
M  END
> <minimizedAffinity>
-8.12714

$$$$
