CHEMBL3936547


 40 43  0  0  0  0  0  0  0  0999 V2000
  -28.0904  -10.3928   -5.7708 C   0  0  0  0  0  0  0  0  0  0  0  0
  -27.9442  -11.4924   -4.9987 N   0  0  0  0  0  0  0  0  0  0  0  0
  -28.0550  -11.3557   -3.6604 C   0  0  0  0  0  0  0  0  0  0  0  0
  -28.3042  -10.2408   -2.9478 N   0  0  0  0  0  0  0  0  0  0  0  0
  -28.4572   -9.1823   -3.7545 C   0  0  0  0  0  0  0  0  0  0  0  0
  -28.6926   -7.9062   -3.3382 N   0  0  0  0  0  0  0  0  0  0  0  0
  -28.7724   -7.0556   -4.4222 C   0  0  0  0  0  0  0  0  0  0  0  0
  -28.5913   -7.8408   -5.5487 C   0  0  0  0  0  0  0  0  0  0  0  0
  -28.3842   -9.1789   -5.1359 C   0  0  0  0  0  0  0  0  0  0  0  0
  -28.7479   -7.6322   -2.3651 H   0  0  0  0  0  0  0  0  0  0  0  0
  -28.9966   -5.6165   -4.3268 C   0  0  0  0  0  0  0  0  0  0  0  0
  -30.3001   -5.1095   -4.4153 C   0  0  0  0  0  0  0  0  0  0  0  0
  -30.5424   -3.7440   -4.2725 C   0  0  0  0  0  0  0  0  0  0  0  0
  -29.4868   -2.8591   -4.0275 C   0  0  0  0  0  0  0  0  0  0  0  0
  -28.1839   -3.3652   -3.9422 C   0  0  0  0  0  0  0  0  0  0  0  0
  -27.9396   -4.7308   -4.0997 C   0  0  0  0  0  0  0  0  0  0  0  0
  -29.7328   -1.3780   -3.8906 C   0  0  0  0  0  0  0  0  0  0  0  0
  -29.6879   -0.7093   -5.1865 N   0  0  0  0  0  0  0  0  0  0  0  0
  -30.5482   -0.1757   -5.3142 H   0  0  0  0  0  0  0  0  0  0  0  0
  -28.5336    0.1791   -5.2700 C   0  0  0  0  0  0  0  0  0  0  0  0
  -27.4735   -0.4680   -6.1553 C   0  0  0  0  0  0  0  0  0  0  0  0
  -28.0961   -1.0387   -7.4279 C   0  0  0  0  0  0  0  0  0  0  0  0
  -27.7790   -2.5250   -7.5584 C   0  0  0  0  0  0  0  0  0  0  0  0
  -29.0486   -3.3645   -7.6490 C   0  0  0  0  0  0  0  0  0  0  0  0
  -28.7357   -4.7935   -8.0345 C   0  0  0  0  0  0  0  0  0  0  0  0
  -29.4705   -5.7531   -7.8140 O   0  0  0  0  0  0  0  0  0  0  0  0
  -27.5351   -4.9390   -8.6820 N   0  0  0  0  0  0  0  0  0  0  0  0
  -27.1754   -6.2592   -9.0325 O   0  0  0  0  0  0  0  0  0  0  0  0
  -26.8259   -4.2208   -8.7728 H   0  0  0  0  0  0  0  0  0  0  0  0
  -27.9581   -6.7726   -8.7300 H   0  0  0  0  0  0  0  0  0  0  0  0
  -27.9048  -10.4317   -7.1523 N   0  0  0  0  0  0  0  0  0  0  0  0
  -27.1915   -9.7487   -7.3960 H   0  0  0  0  0  0  0  0  0  0  0  0
  -29.9911  -11.4965   -7.9554 C   0  0  0  0  0  0  0  0  0  0  0  0
  -29.0942  -10.2549   -7.9923 C   0  0  0  0  0  0  0  0  0  0  0  0
  -28.6028  -10.0167   -9.4175 C   0  0  0  0  0  0  0  0  0  0  0  0
  -27.3075   -9.5354   -9.6539 C   0  0  0  0  0  0  0  0  0  0  0  0
  -26.8200   -9.4281  -10.9586 C   0  0  0  0  0  0  0  0  0  0  0  0
  -27.6211   -9.7932  -12.0396 C   0  0  0  0  0  0  0  0  0  0  0  0
  -28.9267  -10.2258  -11.8232 C   0  0  0  0  0  0  0  0  0  0  0  0
  -29.4183  -10.3246  -10.5222 C   0  0  0  0  0  0  0  0  0  0  0  0
 33 34  1  0  0  0
 34 31  1  0  0  0
 34 35  1  0  0  0
 31  1  1  0  0  0
 31 32  1  0  0  0
  1  2  1  0  0  0
  1  9  2  0  0  0
  2  3  2  0  0  0
  3  4  1  0  0  0
  4  5  2  0  0  0
  5  6  1  0  0  0
  5  9  1  0  0  0
  6  7  1  0  0  0
  6 10  1  0  0  0
  7 11  1  0  0  0
  7  8  2  0  0  0
 11 12  1  0  0  0
 11 16  2  0  0  0
 12 13  2  0  0  0
 13 14  1  0  0  0
 14 17  1  0  0  0
 14 15  2  0  0  0
 17 18  1  0  0  0
 18 20  1  0  0  0
 18 19  1  0  0  0
 20 21  1  0  0  0
 21 22  1  0  0  0
 22 23  1  0  0  0
 23 24  1  0  0  0
 24 25  1  0  0  0
 25 26  2  0  0  0
 25 27  1  0  0  0
 27 28  1  0  0  0
 27 29  1  0  0  0
 28 30  1  0  0  0
 15 16  1  0  0  0
  8  9  1  0  0  0
 35 36  1  0  0  0
 35 40  2  0  0  0
 36 37  2  0  0  0
 37 38  1  0  0  0
 38 39  2  0  0  0
 39 40  1  0  0  0
M  END
> <minimizedAffinity>
-7.84554

$$$$
