CHEMBL4469216


 35 38  0  0  0  0  0  0  0  0999 V2000
  -26.8118   -1.5389  -10.0750 C   0  0  0  0  0  0  0  0  0  0  0  0
  -27.7806   -1.6093  -11.0556 C   0  0  0  0  0  0  0  0  0  0  0  0
  -27.3340   -1.6286  -12.3561 C   0  0  0  0  0  0  0  0  0  0  0  0
  -26.0356   -1.6169  -12.6936 N   0  0  0  0  0  0  0  0  0  0  0  0
  -25.1638   -1.6125  -11.6770 C   0  0  0  0  0  0  0  0  0  0  0  0
  -25.5022   -1.5517  -10.3808 N   0  0  0  0  0  0  0  0  0  0  0  0
  -27.2041   -1.5562   -8.7121 N   0  0  0  0  0  0  0  0  0  0  0  0
  -26.3986   -1.3897   -8.1148 H   0  0  0  0  0  0  0  0  0  0  0  0
  -29.3752   -4.6570   -6.8363 C   0  0  0  0  0  0  0  0  0  0  0  0
  -28.5114   -4.9579   -7.8964 C   0  0  0  0  0  0  0  0  0  0  0  0
  -27.8063   -3.9357   -8.5307 C   0  0  0  0  0  0  0  0  0  0  0  0
  -27.9684   -2.6016   -8.1347 C   0  0  0  0  0  0  0  0  0  0  0  0
  -28.7930   -2.3167   -7.0399 C   0  0  0  0  0  0  0  0  0  0  0  0
  -29.5015   -3.3366   -6.3979 C   0  0  0  0  0  0  0  0  0  0  0  0
  -30.0811   -5.7299   -6.1005 C   0  0  0  0  0  0  0  0  0  0  0  0
  -30.6368   -6.6683   -6.6458 O   0  0  0  0  0  0  0  0  0  0  0  0
  -30.0694   -5.4459   -4.7769 O   0  0  0  0  0  0  0  0  0  0  0  0
  -31.7289   -4.3572   -3.4714 C   0  0  0  0  0  0  0  0  0  0  0  0
  -31.3062   -5.6767   -4.0904 C   0  0  0  0  0  0  0  0  0  0  0  0
  -23.4361   -1.6416  -12.0805 S   0  0  0  0  0  0  0  0  0  0  0  0
  -23.4956   -0.7882  -13.6895 C   0  0  0  0  0  0  0  0  0  0  0  0
  -23.1477    0.6898  -13.5701 C   0  0  0  0  0  0  0  0  0  0  0  0
  -23.8712    1.4943  -12.9804 O   0  0  0  0  0  0  0  0  0  0  0  0
  -21.8304    1.1724  -14.0692 C   0  0  0  0  0  0  0  0  0  0  0  0
  -21.4058    2.5000  -13.9832 C   0  0  0  0  0  0  0  0  0  0  0  0
  -20.1451    2.8764  -14.4779 C   0  0  0  0  0  0  0  0  0  0  0  0
  -19.2626    1.9442  -15.0566 C   0  0  0  0  0  0  0  0  0  0  0  0
  -19.7047    0.6121  -15.1184 C   0  0  0  0  0  0  0  0  0  0  0  0
  -20.9638    0.2309  -14.6399 C   0  0  0  0  0  0  0  0  0  0  0  0
  -17.9264    2.3358  -15.5707 C   0  0  0  0  0  0  0  0  0  0  0  0
  -16.9136    1.3873  -15.8118 C   0  0  0  0  0  0  0  0  0  0  0  0
  -15.6606    1.7632  -16.3105 C   0  0  0  0  0  0  0  0  0  0  0  0
  -15.3915    3.0984  -16.5922 C   0  0  0  0  0  0  0  0  0  0  0  0
  -16.3702    4.0585  -16.3650 C   0  0  0  0  0  0  0  0  0  0  0  0
  -17.6159    3.6810  -15.8531 C   0  0  0  0  0  0  0  0  0  0  0  0
 18 19  1  0  0  0
 19 17  1  0  0  0
 17 15  1  0  0  0
 15 16  2  0  0  0
 15  9  1  0  0  0
  9 10  1  0  0  0
  9 14  2  0  0  0
 10 11  2  0  0  0
 11 12  1  0  0  0
 12  7  1  0  0  0
 12 13  2  0  0  0
  7  1  1  0  0  0
  7  8  1  0  0  0
  1  2  1  0  0  0
  1  6  2  0  0  0
  2  3  2  0  0  0
  3  4  1  0  0  0
  4  5  2  0  0  0
  5 20  1  0  0  0
  5  6  1  0  0  0
 20 21  1  0  0  0
 21 22  1  0  0  0
 22 23  2  0  0  0
 22 24  1  0  0  0
 24 25  1  0  0  0
 24 29  2  0  0  0
 25 26  2  0  0  0
 26 27  1  0  0  0
 27 30  1  0  0  0
 27 28  2  0  0  0
 30 31  1  0  0  0
 30 35  2  0  0  0
 31 32  2  0  0  0
 32 33  1  0  0  0
 33 34  2  0  0  0
 34 35  1  0  0  0
 28 29  1  0  0  0
 13 14  1  0  0  0
M  END
> <minimizedAffinity>
-10.33725

$$$$
