CHEMBL3577119


 33 35  0  0  0  0  0  0  0  0999 V2000
  -29.8807   -6.8509   -7.5193 C   0  0  0  0  0  0  0  0  0  0  0  0
  -31.0894   -7.5404   -7.3105 C   0  0  0  0  0  0  0  0  0  0  0  0
  -31.2921   -8.8279   -7.8220 C   0  0  0  0  0  0  0  0  0  0  0  0
  -30.3021   -9.4337   -8.5807 C   0  0  0  0  0  0  0  0  0  0  0  0
  -30.5316  -10.6524   -9.0864 F   0  0  0  0  0  0  0  0  0  0  0  0
  -29.1130   -8.7581   -8.8547 C   0  0  0  0  0  0  0  0  0  0  0  0
  -28.9168   -7.4797   -8.3360 C   0  0  0  0  0  0  0  0  0  0  0  0
  -27.9687   -0.8833   -6.2855 C   0  0  0  0  0  0  0  0  0  0  0  0
  -27.5910   -1.1599   -7.5386 N   0  0  0  0  0  0  0  0  0  0  0  0
  -27.9127   -2.3677   -8.0043 C   0  0  0  0  0  0  0  0  0  0  0  0
  -28.5948   -3.3039   -7.2621 C   0  0  0  0  0  0  0  0  0  0  0  0
  -28.9443   -4.5666   -7.7521 C   0  0  0  0  0  0  0  0  0  0  0  0
  -29.5961   -5.5093   -6.9465 C   0  0  0  0  0  0  0  0  0  0  0  0
  -29.8667   -5.0781   -5.6361 C   0  0  0  0  0  0  0  0  0  0  0  0
  -30.5155   -5.9228   -4.5782 C   0  0  0  0  0  0  0  0  0  0  0  0
  -29.5627   -3.8216   -5.1851 N   0  0  0  0  0  0  0  0  0  0  0  0
  -28.9295   -2.9384   -5.9716 C   0  0  0  0  0  0  0  0  0  0  0  0
  -28.6299   -1.7332   -5.4934 N   0  0  0  0  0  0  0  0  0  0  0  0
  -28.8179    1.0380   -5.1564 C   0  0  0  0  0  0  0  0  0  0  0  0
  -27.6822    0.3610   -5.7412 N   0  0  0  0  0  0  0  0  0  0  0  0
  -26.8760    0.2378   -5.1396 H   0  0  0  0  0  0  0  0  0  0  0  0
  -28.0890   -9.3170   -9.6296 N   0  0  0  0  0  0  0  0  0  0  0  0
  -27.0083  -10.0165   -9.1715 C   0  0  0  0  0  0  0  0  0  0  0  0
  -26.2973  -10.6419   -9.9520 O   0  0  0  0  0  0  0  0  0  0  0  0
  -26.7257   -9.8472   -7.8456 N   0  0  0  0  0  0  0  0  0  0  0  0
  -28.0419   -9.1126  -10.6188 H   0  0  0  0  0  0  0  0  0  0  0  0
  -27.2395   -9.1506   -7.3311 H   0  0  0  0  0  0  0  0  0  0  0  0
  -25.6081  -10.4770   -7.1942 C   0  0  0  0  0  0  0  0  0  0  0  0
  -25.8609  -10.7658   -5.7126 C   0  0  0  0  0  0  0  0  0  0  0  0
  -24.7950  -10.1623   -4.7611 C   0  0  0  0  0  0  0  0  0  0  0  0
  -25.3565   -8.9413   -4.0114 C   0  0  0  0  0  0  0  0  0  0  0  0
  -24.3992  -11.2279   -3.7225 C   0  0  0  0  0  0  0  0  0  0  0  0
  -23.5379   -9.7507   -5.5451 C   0  0  0  0  0  0  0  0  0  0  0  0
 19 20  1  0  0  0
 20  8  1  0  0  0
 20 21  1  0  0  0
  8  9  1  0  0  0
  8 18  2  0  0  0
  9 10  2  0  0  0
 10 11  1  0  0  0
 11 12  1  0  0  0
 11 17  2  0  0  0
 12 13  2  0  0  0
 13  1  1  0  0  0
 13 14  1  0  0  0
  1  2  1  0  0  0
  1  7  2  0  0  0
  2  3  2  0  0  0
  3  4  1  0  0  0
  4  5  1  0  0  0
  4  6  2  0  0  0
  6 22  1  0  0  0
  6  7  1  0  0  0
 22 23  1  0  0  0
 22 26  1  0  0  0
 23 24  2  0  0  0
 23 25  1  0  0  0
 25 28  1  0  0  0
 25 27  1  0  0  0
 28 29  1  0  0  0
 29 30  1  0  0  0
 30 31  1  0  0  0
 30 32  1  0  0  0
 30 33  1  0  0  0
 14 15  1  0  0  0
 14 16  2  0  0  0
 16 17  1  0  0  0
 17 18  1  0  0  0
M  END
> <minimizedAffinity>
-9.18725

$$$$
