CHEMBL240455


 29 31  0  0  0  0  0  0  0  0999 V2000
  -31.1805   -7.5014   -7.1324 C   0  0  0  0  0  0  0  0  0  0  0  0
  -30.0431   -8.0577   -6.4286 N   0  0  0  0  0  0  0  0  0  0  0  0
  -30.0571   -9.3706   -6.1306 N   0  0  0  0  0  0  0  0  0  0  0  0
  -28.8974   -9.5559   -5.5085 C   0  0  0  0  0  0  0  0  0  0  0  0
  -28.1293   -8.3710   -5.4184 C   0  0  0  0  0  0  0  0  0  0  0  0
  -28.8813   -7.3994   -6.0569 C   0  0  0  0  0  0  0  0  0  0  0  0
  -28.7082   -5.9868   -6.3244 C   0  0  0  0  0  0  0  0  0  0  0  0
  -28.3562   -5.6214   -7.4435 O   0  0  0  0  0  0  0  0  0  0  0  0
  -28.9210   -5.1215   -5.2611 N   0  0  0  0  0  0  0  0  0  0  0  0
  -29.1472   -5.5492   -4.3697 H   0  0  0  0  0  0  0  0  0  0  0  0
  -28.8246   -3.7048   -5.2980 C   0  0  0  0  0  0  0  0  0  0  0  0
  -27.6621   -3.0109   -4.9549 C   0  0  0  0  0  0  0  0  0  0  0  0
  -27.6167   -1.6147   -4.9589 C   0  0  0  0  0  0  0  0  0  0  0  0
  -28.7348   -0.8640   -5.3261 C   0  0  0  0  0  0  0  0  0  0  0  0
  -29.8936   -1.5483   -5.7171 C   0  0  0  0  0  0  0  0  0  0  0  0
  -29.9395   -2.9532   -5.6898 C   0  0  0  0  0  0  0  0  0  0  0  0
  -28.6890    0.6429   -5.2757 C   0  0  0  0  0  0  0  0  0  0  0  0
  -28.2178    1.2088   -6.4239 F   0  0  0  0  0  0  0  0  0  0  0  0
  -29.9118    1.2010   -5.0625 F   0  0  0  0  0  0  0  0  0  0  0  0
  -27.8835    1.1062   -4.2803 F   0  0  0  0  0  0  0  0  0  0  0  0
  -26.9171   -8.3251   -4.8126 N   0  0  0  0  0  0  0  0  0  0  0  0
  -26.1172   -8.0706   -5.3926 H   0  0  0  0  0  0  0  0  0  0  0  0
  -26.4937   -9.1969   -3.7267 C   0  0  0  0  0  0  0  0  0  0  0  0
  -25.1325   -9.7909   -4.0221 C   0  0  0  0  0  0  0  0  0  0  0  0
  -24.3530  -10.4262   -3.0437 C   0  0  0  0  0  0  0  0  0  0  0  0
  -23.1425  -10.9923   -3.4058 C   0  0  0  0  0  0  0  0  0  0  0  0
  -22.6555  -10.9679   -4.6620 N   0  0  0  0  0  0  0  0  0  0  0  0
  -23.4022  -10.3338   -5.5914 C   0  0  0  0  0  0  0  0  0  0  0  0
  -24.6275   -9.7398   -5.3258 C   0  0  0  0  0  0  0  0  0  0  0  0
  1  2  1  0  0  0
  2  3  1  0  0  0
  2  6  1  0  0  0
  3  4  2  0  0  0
  4  5  1  0  0  0
  5 21  1  0  0  0
  5  6  2  0  0  0
 21 23  1  0  0  0
 21 22  1  0  0  0
 23 24  1  0  0  0
 24 25  1  0  0  0
 24 29  2  0  0  0
 25 26  2  0  0  0
 26 27  1  0  0  0
 27 28  2  0  0  0
 28 29  1  0  0  0
  6  7  1  0  0  0
  7  8  2  0  0  0
  7  9  1  0  0  0
  9 11  1  0  0  0
  9 10  1  0  0  0
 11 12  1  0  0  0
 11 16  2  0  0  0
 12 13  2  0  0  0
 13 14  1  0  0  0
 14 17  1  0  0  0
 14 15  2  0  0  0
 17 18  1  0  0  0
 17 19  1  0  0  0
 17 20  1  0  0  0
 15 16  1  0  0  0
M  END
> <minimizedAffinity>
-8.41693

$$$$
