CHEMBL4240969


 35 38  0  0  0  0  0  0  0  0999 V2000
  -13.5313   -3.5039  -10.8500 C   0  0  0  0  0  0  0  0  0  0  0  0
  -12.8728   -2.8475  -11.8998 C   0  0  0  0  0  0  0  0  0  0  0  0
  -13.5731   -2.1927  -12.9116 C   0  0  0  0  0  0  0  0  0  0  0  0
  -14.9657   -2.2128  -12.9417 C   0  0  0  0  0  0  0  0  0  0  0  0
  -15.6457   -2.8110  -11.8814 C   0  0  0  0  0  0  0  0  0  0  0  0
  -14.9331   -3.4278  -10.8370 C   0  0  0  0  0  0  0  0  0  0  0  0
  -11.4375   -3.4780   -6.2680 C   0  0  0  0  0  0  0  0  0  0  0  0
  -11.6689   -4.2114   -7.5625 C   0  0  0  0  0  0  0  0  0  0  0  0
  -12.5026   -3.6209   -8.5450 C   0  0  0  0  0  0  0  0  0  0  0  0
  -12.7362   -4.1872   -9.8233 C   0  0  0  0  0  0  0  0  0  0  0  0
  -12.0350   -5.4020   -9.9209 C   0  0  0  0  0  0  0  0  0  0  0  0
  -11.9007   -6.2723  -10.9785 C   0  0  0  0  0  0  0  0  0  0  0  0
  -12.3156   -6.3109  -12.2604 N   0  0  0  0  0  0  0  0  0  0  0  0
  -11.1331   -7.3312  -10.5863 O   0  0  0  0  0  0  0  0  0  0  0  0
  -10.6968   -7.1564   -9.2861 N   0  0  0  0  0  0  0  0  0  0  0  0
  -11.2216   -5.9945   -8.8916 C   0  0  0  0  0  0  0  0  0  0  0  0
  -11.0215   -5.4006   -7.6857 N   0  0  0  0  0  0  0  0  0  0  0  0
  -12.4795   -5.4330  -12.7455 H   0  0  0  0  0  0  0  0  0  0  0  0
  -11.8881   -7.0118  -12.8605 H   0  0  0  0  0  0  0  0  0  0  0  0
  -15.6978   -1.6264  -13.9986 N   0  0  0  0  0  0  0  0  0  0  0  0
  -16.2089   -0.3385  -13.9593 C   0  0  0  0  0  0  0  0  0  0  0  0
  -15.9598    0.4879  -13.0880 O   0  0  0  0  0  0  0  0  0  0  0  0
  -17.0744   -0.1016  -15.0173 N   0  0  0  0  0  0  0  0  0  0  0  0
  -15.5911   -2.0262  -14.9195 H   0  0  0  0  0  0  0  0  0  0  0  0
  -17.6215   -0.9058  -15.2895 H   0  0  0  0  0  0  0  0  0  0  0  0
  -17.6663    1.1666  -15.2033 C   0  0  0  0  0  0  0  0  0  0  0  0
  -16.9380    2.2317  -15.7474 C   0  0  0  0  0  0  0  0  0  0  0  0
  -17.5236    3.4904  -15.8840 C   0  0  0  0  0  0  0  0  0  0  0  0
  -18.8348    3.6932  -15.4619 C   0  0  0  0  0  0  0  0  0  0  0  0
  -19.5774    2.6357  -14.9134 C   0  0  0  0  0  0  0  0  0  0  0  0
  -18.9908    1.3632  -14.8144 C   0  0  0  0  0  0  0  0  0  0  0  0
  -20.9687    2.8616  -14.3774 C   0  0  0  0  0  0  0  0  0  0  0  0
  -21.0115    3.6659  -13.2794 F   0  0  0  0  0  0  0  0  0  0  0  0
  -21.7902    3.4390  -15.2964 F   0  0  0  0  0  0  0  0  0  0  0  0
  -21.5783    1.6991  -14.0118 F   0  0  0  0  0  0  0  0  0  0  0  0
  7  8  1  0  0  0
  8  9  1  0  0  0
  8 17  2  0  0  0
  9 10  2  0  0  0
 10  1  1  0  0  0
 10 11  1  0  0  0
  1  2  1  0  0  0
  1  6  2  0  0  0
  2  3  2  0  0  0
  3  4  1  0  0  0
  4 20  1  0  0  0
  4  5  2  0  0  0
 20 21  1  0  0  0
 20 24  1  0  0  0
 21 22  2  0  0  0
 21 23  1  0  0  0
 23 26  1  0  0  0
 23 25  1  0  0  0
 26 27  1  0  0  0
 26 31  2  0  0  0
 27 28  2  0  0  0
 28 29  1  0  0  0
 29 30  2  0  0  0
 30 32  1  0  0  0
 30 31  1  0  0  0
 32 33  1  0  0  0
 32 34  1  0  0  0
 32 35  1  0  0  0
  5  6  1  0  0  0
 11 12  2  0  0  0
 11 16  1  0  0  0
 12 13  1  0  0  0
 12 14  1  0  0  0
 13 18  1  0  0  0
 13 19  1  0  0  0
 14 15  1  0  0  0
 15 16  2  0  0  0
 16 17  1  0  0  0
M  END
> <minimizedAffinity>
-9.78489

$$$$
