CHEMBL3702601


 29 32  0  0  0  0  0  0  0  0999 V2000
  -22.6064    0.4375  -13.7723 C   0  0  0  0  0  0  0  0  0  0  0  0
  -23.1923    1.7100  -13.6914 C   0  0  0  0  0  0  0  0  0  0  0  0
  -22.5003    2.8741  -14.0605 C   0  0  0  0  0  0  0  0  0  0  0  0
  -21.1884    2.7984  -14.5257 C   0  0  0  0  0  0  0  0  0  0  0  0
  -20.5821    1.5488  -14.6235 C   0  0  0  0  0  0  0  0  0  0  0  0
  -21.2920    0.3912  -14.2489 C   0  0  0  0  0  0  0  0  0  0  0  0
  -28.0873   -2.2874   -9.6374 N   0  0  0  0  0  0  0  0  0  0  0  0
  -27.2430   -1.9260  -10.6659 C   0  0  0  0  0  0  0  0  0  0  0  0
  -27.8012   -1.5855  -11.8294 N   0  0  0  0  0  0  0  0  0  0  0  0
  -26.9559   -1.2508  -12.8228 C   0  0  0  0  0  0  0  0  0  0  0  0
  -25.5837   -1.2281  -12.6928 C   0  0  0  0  0  0  0  0  0  0  0  0
  -25.1101   -1.5779  -11.4405 C   0  0  0  0  0  0  0  0  0  0  0  0
  -25.9304   -1.9138  -10.4171 N   0  0  0  0  0  0  0  0  0  0  0  0
  -23.6337   -1.5543  -11.1443 C   0  0  0  0  0  0  0  0  0  0  0  0
  -22.8106   -1.6592  -12.4247 C   0  0  0  0  0  0  0  0  0  0  0  0
  -23.3033   -0.7067  -13.4275 N   0  0  0  0  0  0  0  0  0  0  0  0
  -24.6910   -0.9005  -13.8548 C   0  0  0  0  0  0  0  0  0  0  0  0
  -29.0008   -1.8853   -9.7904 H   0  0  0  0  0  0  0  0  0  0  0  0
  -27.6397   -2.1092   -8.7499 H   0  0  0  0  0  0  0  0  0  0  0  0
  -19.2293    1.3469  -15.2038 C   0  0  0  0  0  0  0  0  0  0  0  0
  -18.8790    0.1822  -15.3855 O   0  0  0  0  0  0  0  0  0  0  0  0
  -18.4584    2.4742  -15.4297 N   0  0  0  0  0  0  0  0  0  0  0  0
  -18.7841    3.3543  -15.0514 H   0  0  0  0  0  0  0  0  0  0  0  0
  -17.1281    2.4541  -15.9244 C   0  0  0  0  0  0  0  0  0  0  0  0
  -16.3226    1.3106  -15.8850 C   0  0  0  0  0  0  0  0  0  0  0  0
  -14.9891    1.3541  -16.2969 C   0  0  0  0  0  0  0  0  0  0  0  0
  -14.4479    2.5420  -16.7719 C   0  0  0  0  0  0  0  0  0  0  0  0
  -15.2509    3.6783  -16.8648 C   0  0  0  0  0  0  0  0  0  0  0  0
  -16.5906    3.6327  -16.4524 C   0  0  0  0  0  0  0  0  0  0  0  0
  7  8  1  0  0  0
  7 18  1  0  0  0
  7 19  1  0  0  0
  8  9  1  0  0  0
  8 13  2  0  0  0
  9 10  2  0  0  0
 10 11  1  0  0  0
 11 12  2  0  0  0
 11 17  1  0  0  0
 12 13  1  0  0  0
 12 14  1  0  0  0
 14 15  1  0  0  0
 15 16  1  0  0  0
 16  1  1  0  0  0
 16 17  1  0  0  0
  1  2  1  0  0  0
  1  6  2  0  0  0
  2  3  2  0  0  0
  3  4  1  0  0  0
  4  5  2  0  0  0
  5 20  1  0  0  0
  5  6  1  0  0  0
 20 21  2  0  0  0
 20 22  1  0  0  0
 22 24  1  0  0  0
 22 23  1  0  0  0
 24 25  1  0  0  0
 24 29  2  0  0  0
 25 26  2  0  0  0
 26 27  1  0  0  0
 27 28  2  0  0  0
 28 29  1  0  0  0
M  END
> <minimizedAffinity>
-9.90465

$$$$
