CHEMBL1271641


 34 38  0  0  0  0  0  0  0  0999 V2000
  -14.3962   -4.9855  -11.4644 C   0  0  0  0  0  0  0  0  0  0  0  0
  -14.8577   -4.4985  -10.2220 C   0  0  0  0  0  0  0  0  0  0  0  0
  -15.3441   -3.2602  -10.2848 N   0  0  0  0  0  0  0  0  0  0  0  0
  -15.2090   -2.9162  -11.5867 N   0  0  0  0  0  0  0  0  0  0  0  0
  -15.5704   -1.7106  -12.1743 C   0  0  0  0  0  0  0  0  0  0  0  0
  -15.3741   -1.5079  -13.4859 C   0  0  0  0  0  0  0  0  0  0  0  0
  -14.7591   -2.6563  -14.2144 C   0  0  0  0  0  0  0  0  0  0  0  0
  -14.4091   -3.7976  -13.6945 N   0  0  0  0  0  0  0  0  0  0  0  0
  -14.6344   -3.9446  -12.3479 C   0  0  0  0  0  0  0  0  0  0  0  0
  -12.1783  -10.0220  -12.6463 O   0  0  0  0  0  0  0  0  0  0  0  0
  -12.6998   -8.7920  -12.3626 C   0  0  0  0  0  0  0  0  0  0  0  0
  -12.1132   -7.9808  -11.3951 C   0  0  0  0  0  0  0  0  0  0  0  0
  -12.6670   -6.7262  -11.1147 C   0  0  0  0  0  0  0  0  0  0  0  0
  -13.8094   -6.2754  -11.7965 C   0  0  0  0  0  0  0  0  0  0  0  0
  -14.3835   -7.1051  -12.7702 C   0  0  0  0  0  0  0  0  0  0  0  0
  -13.8285   -8.3533  -13.0505 C   0  0  0  0  0  0  0  0  0  0  0  0
  -14.3953   -9.1585  -13.9996 O   0  0  0  0  0  0  0  0  0  0  0  0
  -11.4027  -10.1746  -12.0862 H   0  0  0  0  0  0  0  0  0  0  0  0
  -15.1337   -8.6811  -14.4092 H   0  0  0  0  0  0  0  0  0  0  0  0
  -15.7236   -0.2570  -14.1472 C   0  0  0  0  0  0  0  0  0  0  0  0
  -14.7176    0.6278  -14.5475 C   0  0  0  0  0  0  0  0  0  0  0  0
  -15.0488    1.8418  -15.1548 C   0  0  0  0  0  0  0  0  0  0  0  0
  -16.3867    2.1701  -15.3852 C   0  0  0  0  0  0  0  0  0  0  0  0
  -17.3912    1.2970  -14.9661 C   0  0  0  0  0  0  0  0  0  0  0  0
  -17.0639    0.0843  -14.3540 C   0  0  0  0  0  0  0  0  0  0  0  0
  -16.8188    3.3167  -15.9980 O   0  0  0  0  0  0  0  0  0  0  0  0
  -15.8921    4.4089  -15.9498 C   0  0  0  0  0  0  0  0  0  0  0  0
  -15.4603    4.7667  -17.3812 C   0  0  0  0  0  0  0  0  0  0  0  0
  -14.1704    4.1784  -17.7966 N   0  0  0  0  0  0  0  0  0  0  0  0
  -13.0721    4.6337  -16.9092 C   0  0  0  0  0  0  0  0  0  0  0  0
  -12.6406    6.0954  -17.1444 C   0  0  0  0  0  0  0  0  0  0  0  0
  -12.2991    6.3357  -18.5165 O   0  0  0  0  0  0  0  0  0  0  0  0
  -13.3821    5.9787  -19.3830 C   0  0  0  0  0  0  0  0  0  0  0  0
  -13.7749    4.5067  -19.1856 C   0  0  0  0  0  0  0  0  0  0  0  0
 10 11  1  0  0  0
 10 18  1  0  0  0
 11 12  1  0  0  0
 11 16  2  0  0  0
 12 13  2  0  0  0
 13 14  1  0  0  0
 14  1  1  0  0  0
 14 15  2  0  0  0
  1  2  1  0  0  0
  1  9  2  0  0  0
  2  3  2  0  0  0
  3  4  1  0  0  0
  4  5  1  0  0  0
  4  9  1  0  0  0
  5  6  2  0  0  0
  6 20  1  0  0  0
  6  7  1  0  0  0
 20 21  1  0  0  0
 20 25  2  0  0  0
 21 22  2  0  0  0
 22 23  1  0  0  0
 23 26  1  0  0  0
 23 24  2  0  0  0
 26 27  1  0  0  0
 27 28  1  0  0  0
 28 29  1  0  0  0
 29 30  1  0  0  0
 29 34  1  0  0  0
 30 31  1  0  0  0
 31 32  1  0  0  0
 32 33  1  0  0  0
 33 34  1  0  0  0
 24 25  1  0  0  0
  7  8  2  0  0  0
  8  9  1  0  0  0
 15 16  1  0  0  0
 16 17  1  0  0  0
 17 19  1  0  0  0
M  END
> <minimizedAffinity>
-7.05681

$$$$
