CHEMBL3930429


 35 39  0  0  0  0  0  0  0  0999 V2000
  -28.8447  -10.5737   -7.9368 C   0  0  0  0  0  0  0  0  0  0  0  0
  -27.8152  -11.1477   -7.1870 C   0  0  0  0  0  0  0  0  0  0  0  0
  -27.7287  -10.9345   -5.7904 C   0  0  0  0  0  0  0  0  0  0  0  0
  -26.7672  -11.4971   -4.9424 C   0  0  0  0  0  0  0  0  0  0  0  0
  -26.7931  -11.3132   -3.6071 N   0  0  0  0  0  0  0  0  0  0  0  0
  -27.7737  -10.5581   -3.1154 C   0  0  0  0  0  0  0  0  0  0  0  0
  -28.7210   -9.9536   -3.8317 N   0  0  0  0  0  0  0  0  0  0  0  0
  -28.6863  -10.1497   -5.1506 C   0  0  0  0  0  0  0  0  0  0  0  0
  -29.6487   -9.5259   -5.9177 C   0  0  0  0  0  0  0  0  0  0  0  0
  -29.7047   -9.6648   -7.3132 C   0  0  0  0  0  0  0  0  0  0  0  0
  -29.1432  -12.2276   -9.6055 C   0  0  0  0  0  0  0  0  0  0  0  0
  -29.0223  -10.8418   -9.2684 O   0  0  0  0  0  0  0  0  0  0  0  0
  -25.7176  -12.2877   -5.4929 N   0  0  0  0  0  0  0  0  0  0  0  0
  -26.1164  -12.9458   -6.1561 H   0  0  0  0  0  0  0  0  0  0  0  0
  -24.4958  -11.7331   -5.9131 C   0  0  0  0  0  0  0  0  0  0  0  0
  -24.0352  -10.5376   -5.3399 C   0  0  0  0  0  0  0  0  0  0  0  0
  -22.8856   -9.9127   -5.8125 C   0  0  0  0  0  0  0  0  0  0  0  0
  -22.1696  -10.4822   -6.8664 C   0  0  0  0  0  0  0  0  0  0  0  0
  -20.7929   -9.6243   -7.4526 Cl  0  0  0  0  0  0  0  0  0  0  0  0
  -22.5940  -11.6985   -7.4160 C   0  0  0  0  0  0  0  0  0  0  0  0
  -21.7511  -12.4659   -8.7157 Cl  0  0  0  0  0  0  0  0  0  0  0  0
  -23.7481  -12.3272   -6.9322 C   0  0  0  0  0  0  0  0  0  0  0  0
  -30.5729   -8.9284   -8.0975 O   0  0  0  0  0  0  0  0  0  0  0  0
  -31.1571   -7.8264   -7.3852 C   0  0  0  0  0  0  0  0  0  0  0  0
  -30.2596   -6.6673   -7.1291 C   0  0  0  0  0  0  0  0  0  0  0  0
  -29.2443   -6.1467   -7.9027 C   0  0  0  0  0  0  0  0  0  0  0  0
  -28.6286   -4.7166   -7.1710 S   0  0  0  0  0  0  0  0  0  0  0  0
  -29.7897   -4.8678   -5.9134 C   0  0  0  0  0  0  0  0  0  0  0  0
  -30.4989   -5.9759   -5.9534 N   0  0  0  0  0  0  0  0  0  0  0  0
  -30.1532   -3.7641   -4.9571 C   0  0  0  0  0  0  0  0  0  0  0  0
  -28.9433   -2.8284   -4.8228 C   0  0  0  0  0  0  0  0  0  0  0  0
  -29.0942   -2.1711   -3.4619 C   0  0  0  0  0  0  0  0  0  0  0  0
  -30.3484   -2.7901   -2.8663 C   0  0  0  0  0  0  0  0  0  0  0  0
  -30.4587   -4.0862   -3.5500 N   0  0  0  0  0  0  0  0  0  0  0  0
  -31.7888   -4.6595   -3.3763 C   0  0  0  0  0  0  0  0  0  0  0  0
 11 12  1  0  0  0
 12  1  1  0  0  0
  1  2  1  0  0  0
  1 10  2  0  0  0
  2  3  2  0  0  0
  3  4  1  0  0  0
  3  8  1  0  0  0
  4 13  1  0  0  0
  4  5  2  0  0  0
 13 15  1  0  0  0
 13 14  1  0  0  0
 15 16  1  0  0  0
 15 22  2  0  0  0
 16 17  2  0  0  0
 17 18  1  0  0  0
 18 19  1  0  0  0
 18 20  2  0  0  0
 20 21  1  0  0  0
 20 22  1  0  0  0
  5  6  1  0  0  0
  6  7  2  0  0  0
  7  8  1  0  0  0
  8  9  2  0  0  0
  9 10  1  0  0  0
 10 23  1  0  0  0
 23 24  1  0  0  0
 24 25  1  0  0  0
 25 26  2  0  0  0
 25 29  1  0  0  0
 26 27  1  0  0  0
 27 28  1  0  0  0
 28 29  2  0  0  0
 30 31  1  0  0  0
 30 34  1  0  0  0
 30 28  1  0  0  0
 31 32  1  0  0  0
 32 33  1  0  0  0
 33 34  1  0  0  0
 34 35  1  0  0  0
M  END
> <minimizedAffinity>
-7.04463

$$$$
