CHEMBL371374


 24 26  0  0  0  0  0  0  0  0999 V2000
  -30.6316   -6.1317   -5.8354 N   0  0  0  0  0  0  0  0  0  0  0  0
  -31.6202   -6.3352   -5.8992 H   0  0  0  0  0  0  0  0  0  0  0  0
  -29.0471   -2.8464   -5.1128 C   0  0  0  0  0  0  0  0  0  0  0  0
  -29.6753   -2.4629   -3.9260 C   0  0  0  0  0  0  0  0  0  0  0  0
  -30.5998   -3.3170   -3.3493 C   0  0  0  0  0  0  0  0  0  0  0  0
  -30.8896   -4.5384   -3.9605 C   0  0  0  0  0  0  0  0  0  0  0  0
  -30.2884   -4.9366   -5.1675 C   0  0  0  0  0  0  0  0  0  0  0  0
  -29.3350   -4.0745   -5.7279 C   0  0  0  0  0  0  0  0  0  0  0  0
  -27.8752   -1.7265   -5.8404 S   0  0  0  0  0  0  0  0  0  0  0  0
  -27.5997   -2.1990   -7.1847 O   0  0  0  0  0  0  0  0  0  0  0  0
  -26.8112   -1.5520   -4.8722 O   0  0  0  0  0  0  0  0  0  0  0  0
  -28.2875    0.8378   -4.9788 C   0  0  0  0  0  0  0  0  0  0  0  0
  -28.7870   -0.1959   -5.9699 C   0  0  0  0  0  0  0  0  0  0  0  0
  -29.7801   -7.1176   -6.1834 C   0  0  0  0  0  0  0  0  0  0  0  0
  -29.0495   -7.9113   -5.4295 N   0  0  0  0  0  0  0  0  0  0  0  0
  -28.4304   -8.7494   -6.3047 C   0  0  0  0  0  0  0  0  0  0  0  0
  -28.8014   -8.4482   -7.5931 C   0  0  0  0  0  0  0  0  0  0  0  0
  -29.6680   -7.3813   -7.5263 O   0  0  0  0  0  0  0  0  0  0  0  0
  -28.4723   -9.0094   -8.8940 C   0  0  0  0  0  0  0  0  0  0  0  0
  -29.4503   -9.7229   -9.6096 C   0  0  0  0  0  0  0  0  0  0  0  0
  -29.1648  -10.2879  -10.8539 C   0  0  0  0  0  0  0  0  0  0  0  0
  -27.8962  -10.1397  -11.4043 C   0  0  0  0  0  0  0  0  0  0  0  0
  -26.9175   -9.4275  -10.7129 C   0  0  0  0  0  0  0  0  0  0  0  0
  -27.2026   -8.8652   -9.4648 C   0  0  0  0  0  0  0  0  0  0  0  0
 12 13  1  0  0  0
 13  9  1  0  0  0
  9 10  2  0  0  0
  9 11  2  0  0  0
  9  3  1  0  0  0
  3  4  1  0  0  0
  3  8  2  0  0  0
  4  5  2  0  0  0
  5  6  1  0  0  0
  6  7  2  0  0  0
  7  1  1  0  0  0
  7  8  1  0  0  0
  1 14  1  0  0  0
  1  2  1  0  0  0
 14 15  2  0  0  0
 14 18  1  0  0  0
 15 16  1  0  0  0
 16 17  2  0  0  0
 17 19  1  0  0  0
 17 18  1  0  0  0
 19 20  1  0  0  0
 19 24  2  0  0  0
 20 21  2  0  0  0
 21 22  1  0  0  0
 22 23  2  0  0  0
 23 24  1  0  0  0
M  END
> <minimizedAffinity>
-7.89509

$$$$
