CHEMBL3780801


 28 31  0  0  0  0  0  0  0  0999 V2000
  -28.0290   -1.8106   -8.6370 C   0  0  0  0  0  0  0  0  0  0  0  0
  -27.9182   -3.1560   -8.5905 N   0  0  0  0  0  0  0  0  0  0  0  0
  -27.9478   -3.8107   -7.3949 N   0  0  0  0  0  0  0  0  0  0  0  0
  -28.1292   -3.1377   -6.2384 C   0  0  0  0  0  0  0  0  0  0  0  0
  -28.2301   -1.7324   -6.2298 C   0  0  0  0  0  0  0  0  0  0  0  0
  -28.3965   -0.9791   -5.0402 C   0  0  0  0  0  0  0  0  0  0  0  0
  -28.4310    0.4148   -5.0556 C   0  0  0  0  0  0  0  0  0  0  0  0
  -28.2956    1.0917   -6.2583 C   0  0  0  0  0  0  0  0  0  0  0  0
  -28.1555    0.3735   -7.4478 C   0  0  0  0  0  0  0  0  0  0  0  0
  -28.1314   -1.0417   -7.4626 C   0  0  0  0  0  0  0  0  0  0  0  0
  -28.2392   -3.8653   -5.0253 N   0  0  0  0  0  0  0  0  0  0  0  0
  -27.7172   -3.3884   -4.2933 H   0  0  0  0  0  0  0  0  0  0  0  0
  -29.4162   -4.4743   -4.5232 C   0  0  0  0  0  0  0  0  0  0  0  0
  -30.3539   -3.7204   -3.8005 C   0  0  0  0  0  0  0  0  0  0  0  0
  -31.5632   -4.2784   -3.3780 C   0  0  0  0  0  0  0  0  0  0  0  0
  -31.8645   -5.6025   -3.6822 C   0  0  0  0  0  0  0  0  0  0  0  0
  -30.9573   -6.3684   -4.4135 C   0  0  0  0  0  0  0  0  0  0  0  0
  -29.7488   -5.8046   -4.8386 C   0  0  0  0  0  0  0  0  0  0  0  0
  -28.6629   -6.7911   -5.7569 Cl  0  0  0  0  0  0  0  0  0  0  0  0
  -28.1308   -1.2308  -10.0294 C   0  0  0  0  0  0  0  0  0  0  0  0
  -24.7398   -1.6718  -12.6972 C   0  0  0  0  0  0  0  0  0  0  0  0
  -26.0363   -1.7695  -13.2020 C   0  0  0  0  0  0  0  0  0  0  0  0
  -27.1419   -1.6506  -12.3487 C   0  0  0  0  0  0  0  0  0  0  0  0
  -26.9687   -1.4480  -10.9740 C   0  0  0  0  0  0  0  0  0  0  0  0
  -25.6602   -1.3248  -10.4803 C   0  0  0  0  0  0  0  0  0  0  0  0
  -24.5598   -1.4405  -11.3337 C   0  0  0  0  0  0  0  0  0  0  0  0
  -22.7820   -0.5991  -13.5092 C   0  0  0  0  0  0  0  0  0  0  0  0
  -23.5829   -1.7709  -13.4199 O   0  0  0  0  0  0  0  0  0  0  0  0
 27 28  1  0  0  0
 28 21  1  0  0  0
 21 22  1  0  0  0
 21 26  2  0  0  0
 22 23  2  0  0  0
 23 24  1  0  0  0
 24 20  1  0  0  0
 24 25  2  0  0  0
 20  1  1  0  0  0
  1  2  1  0  0  0
  1 10  2  0  0  0
  2  3  2  0  0  0
  3  4  1  0  0  0
  4 11  1  0  0  0
  4  5  2  0  0  0
 11 13  1  0  0  0
 11 12  1  0  0  0
 13 14  1  0  0  0
 13 18  2  0  0  0
 14 15  2  0  0  0
 15 16  1  0  0  0
 16 17  2  0  0  0
 17 18  1  0  0  0
 18 19  1  0  0  0
  5  6  1  0  0  0
  5 10  1  0  0  0
  6  7  2  0  0  0
  7  8  1  0  0  0
  8  9  2  0  0  0
  9 10  1  0  0  0
 25 26  1  0  0  0
M  END
> <minimizedAffinity>
-9.11703

$$$$
