CHEMBL211060


 35 38  0  0  0  0  0  0  0  0999 V2000
  -16.1238    0.8390  -14.3098 C   0  0  0  0  0  0  0  0  0  0  0  0
  -15.5267    1.0796  -15.5548 C   0  0  0  0  0  0  0  0  0  0  0  0
  -16.0054    2.1001  -16.3746 C   0  0  0  0  0  0  0  0  0  0  0  0
  -17.0780    2.8790  -15.9453 C   0  0  0  0  0  0  0  0  0  0  0  0
  -17.5380    3.8418  -16.7601 F   0  0  0  0  0  0  0  0  0  0  0  0
  -17.7068    2.6630  -14.7077 C   0  0  0  0  0  0  0  0  0  0  0  0
  -17.2109    1.6281  -13.9088 C   0  0  0  0  0  0  0  0  0  0  0  0
  -15.6451   -0.1894  -12.2502 O   0  0  0  0  0  0  0  0  0  0  0  0
  -15.5947   -0.2775  -13.4729 C   0  0  0  0  0  0  0  0  0  0  0  0
  -15.0518   -1.3733  -14.1268 N   0  0  0  0  0  0  0  0  0  0  0  0
  -15.2069   -1.5200  -15.1073 H   0  0  0  0  0  0  0  0  0  0  0  0
  -14.5929   -2.5194  -13.3625 C   0  0  0  0  0  0  0  0  0  0  0  0
  -15.3201   -3.8153  -13.7642 C   0  0  0  0  0  0  0  0  0  0  0  0
  -16.3192   -4.2561  -12.7709 N   0  0  0  0  0  0  0  0  0  0  0  0
  -16.0566   -3.7388  -11.4089 C   0  0  0  0  0  0  0  0  0  0  0  0
  -14.8526   -4.3936  -10.7118 C   0  0  0  0  0  0  0  0  0  0  0  0
  -14.9913   -5.8191  -10.6596 O   0  0  0  0  0  0  0  0  0  0  0  0
  -15.1718   -6.3665  -11.9706 C   0  0  0  0  0  0  0  0  0  0  0  0
  -16.3818   -5.7334  -12.6826 C   0  0  0  0  0  0  0  0  0  0  0  0
  -18.8332    3.3901  -14.3560 N   0  0  0  0  0  0  0  0  0  0  0  0
  -18.7783    3.9382  -13.5028 H   0  0  0  0  0  0  0  0  0  0  0  0
  -20.0887    3.3881  -15.0969 C   0  0  0  0  0  0  0  0  0  0  0  0
  -21.0955    2.3838  -14.6424 C   0  0  0  0  0  0  0  0  0  0  0  0
  -22.2915    2.6095  -14.0072 C   0  0  0  0  0  0  0  0  0  0  0  0
  -23.0033    1.4872  -13.6842 N   0  0  0  0  0  0  0  0  0  0  0  0
  -22.3731    0.3876  -14.0259 C   0  0  0  0  0  0  0  0  0  0  0  0
  -20.8756    0.6905  -14.8510 S   0  0  0  0  0  0  0  0  0  0  0  0
  -22.7824   -0.8720  -13.7559 N   0  0  0  0  0  0  0  0  0  0  0  0
  -22.1053   -1.5794  -13.5021 H   0  0  0  0  0  0  0  0  0  0  0  0
  -24.0433   -1.2232  -13.2560 C   0  0  0  0  0  0  0  0  0  0  0  0
  -25.1452   -1.4843  -14.0708 C   0  0  0  0  0  0  0  0  0  0  0  0
  -26.4016   -1.6899  -13.5107 C   0  0  0  0  0  0  0  0  0  0  0  0
  -26.5268   -1.6826  -12.1343 C   0  0  0  0  0  0  0  0  0  0  0  0
  -25.3821   -1.4857  -11.3841 C   0  0  0  0  0  0  0  0  0  0  0  0
  -24.1533   -1.2569  -11.9094 N   0  0  0  0  0  0  0  0  0  0  0  0
  8  9  2  0  0  0
  9 10  1  0  0  0
  9  1  1  0  0  0
 10 12  1  0  0  0
 10 11  1  0  0  0
 12 13  1  0  0  0
 13 14  1  0  0  0
 14 15  1  0  0  0
 14 19  1  0  0  0
 15 16  1  0  0  0
 16 17  1  0  0  0
 17 18  1  0  0  0
 18 19  1  0  0  0
  1  2  1  0  0  0
  1  7  2  0  0  0
  2  3  2  0  0  0
  3  4  1  0  0  0
  4  5  1  0  0  0
  4  6  2  0  0  0
  6 20  1  0  0  0
  6  7  1  0  0  0
 20 22  1  0  0  0
 20 21  1  0  0  0
 22 23  1  0  0  0
 23 24  2  0  0  0
 23 27  1  0  0  0
 24 25  1  0  0  0
 25 26  2  0  0  0
 26 28  1  0  0  0
 26 27  1  0  0  0
 28 30  1  0  0  0
 28 29  1  0  0  0
 30 31  1  0  0  0
 30 35  2  0  0  0
 31 32  2  0  0  0
 32 33  1  0  0  0
 33 34  2  0  0  0
 34 35  1  0  0  0
M  END
> <minimizedAffinity>
-9.22815

$$$$
