CHEMBL379372


 31 34  0  0  0  0  0  0  0  0999 V2000
  -13.3816   -3.4372  -11.6083 C   0  0  0  0  0  0  0  0  0  0  0  0
  -12.7194   -2.5307  -12.4444 C   0  0  0  0  0  0  0  0  0  0  0  0
  -13.4243   -1.7398  -13.3545 C   0  0  0  0  0  0  0  0  0  0  0  0
  -14.8099   -1.8503  -13.4761 C   0  0  0  0  0  0  0  0  0  0  0  0
  -15.4832   -2.7261  -12.6186 C   0  0  0  0  0  0  0  0  0  0  0  0
  -14.7780   -3.4868  -11.6713 C   0  0  0  0  0  0  0  0  0  0  0  0
  -12.7802   -6.3885  -13.2081 N   0  0  0  0  0  0  0  0  0  0  0  0
  -12.1456   -6.5720  -11.9849 C   0  0  0  0  0  0  0  0  0  0  0  0
  -11.5429   -7.7688  -11.8372 N   0  0  0  0  0  0  0  0  0  0  0  0
  -10.8639   -8.0217  -10.7092 C   0  0  0  0  0  0  0  0  0  0  0  0
  -10.6970   -7.2067   -9.6689 N   0  0  0  0  0  0  0  0  0  0  0  0
  -11.3298   -6.0363   -9.8448 C   0  0  0  0  0  0  0  0  0  0  0  0
  -11.2873   -4.8021   -8.6833 S   0  0  0  0  0  0  0  0  0  0  0  0
  -12.2271   -3.7447   -9.5252 N   0  0  0  0  0  0  0  0  0  0  0  0
  -12.5857   -4.2821  -10.7011 C   0  0  0  0  0  0  0  0  0  0  0  0
  -12.0787   -5.6300  -10.9429 C   0  0  0  0  0  0  0  0  0  0  0  0
  -12.5176   -7.1381  -13.8408 H   0  0  0  0  0  0  0  0  0  0  0  0
  -12.6754   -5.4579  -13.5949 H   0  0  0  0  0  0  0  0  0  0  0  0
  -15.5668   -1.0950  -14.3994 N   0  0  0  0  0  0  0  0  0  0  0  0
  -16.4267   -0.0550  -14.0927 C   0  0  0  0  0  0  0  0  0  0  0  0
  -16.5576    0.4561  -12.9849 O   0  0  0  0  0  0  0  0  0  0  0  0
  -17.1859    0.3118  -15.1942 N   0  0  0  0  0  0  0  0  0  0  0  0
  -15.3618   -1.2294  -15.3794 H   0  0  0  0  0  0  0  0  0  0  0  0
  -17.4043   -0.4524  -15.8166 H   0  0  0  0  0  0  0  0  0  0  0  0
  -18.1427    1.3457  -15.1102 C   0  0  0  0  0  0  0  0  0  0  0  0
  -17.7608    2.6396  -15.4752 C   0  0  0  0  0  0  0  0  0  0  0  0
  -18.6957    3.6732  -15.4579 C   0  0  0  0  0  0  0  0  0  0  0  0
  -19.9993    3.4333  -15.0335 C   0  0  0  0  0  0  0  0  0  0  0  0
  -20.3683    2.1507  -14.6313 C   0  0  0  0  0  0  0  0  0  0  0  0
  -21.9713    1.8568  -14.0747 Cl  0  0  0  0  0  0  0  0  0  0  0  0
  -19.4507    1.1021  -14.6754 C   0  0  0  0  0  0  0  0  0  0  0  0
  7  8  1  0  0  0
  7 17  1  0  0  0
  7 18  1  0  0  0
  8  9  1  0  0  0
  8 16  2  0  0  0
  9 10  2  0  0  0
 10 11  1  0  0  0
 11 12  2  0  0  0
 12 13  1  0  0  0
 12 16  1  0  0  0
 13 14  1  0  0  0
 14 15  2  0  0  0
 15  1  1  0  0  0
 15 16  1  0  0  0
  1  2  1  0  0  0
  1  6  2  0  0  0
  2  3  2  0  0  0
  3  4  1  0  0  0
  4 19  1  0  0  0
  4  5  2  0  0  0
 19 20  1  0  0  0
 19 23  1  0  0  0
 20 21  2  0  0  0
 20 22  1  0  0  0
 22 25  1  0  0  0
 22 24  1  0  0  0
 25 26  1  0  0  0
 25 31  2  0  0  0
 26 27  2  0  0  0
 27 28  1  0  0  0
 28 29  2  0  0  0
 29 30  1  0  0  0
 29 31  1  0  0  0
  5  6  1  0  0  0
M  END
> <minimizedAffinity>
-8.11535

$$$$
