CHEMBL3924172


 35 38  0  0  0  0  0  0  0  0999 V2000
  -29.2584   -8.7111   -5.6059 N   0  0  0  0  0  0  0  0  0  0  0  0
  -29.1215   -7.2789   -5.4042 C   0  0  0  0  0  0  0  0  0  0  0  0
  -30.0563   -6.5419   -6.1101 C   0  0  0  0  0  0  0  0  0  0  0  0
  -29.9170   -5.1857   -6.0849 C   0  0  0  0  0  0  0  0  0  0  0  0
  -28.8745   -4.5403   -5.5229 C   0  0  0  0  0  0  0  0  0  0  0  0
  -28.4911   -3.6257   -6.3483 N   0  0  0  0  0  0  0  0  0  0  0  0
  -28.8104   -2.4769   -5.8393 C   0  0  0  0  0  0  0  0  0  0  0  0
  -28.3638   -1.7991   -4.7528 C   0  0  0  0  0  0  0  0  0  0  0  0
  -27.9180   -3.0707   -4.1164 N   0  0  0  0  0  0  0  0  0  0  0  0
  -28.1620   -4.7397   -4.4254 C   0  0  0  0  0  0  0  0  0  0  0  0
  -28.2183   -6.4458   -4.5517 C   0  0  0  0  0  0  0  0  0  0  0  0
  -28.9583   -0.3764   -5.5311 C   0  0  0  0  0  0  0  0  0  0  0  0
  -28.2775    0.7336   -6.2916 C   0  0  0  0  0  0  0  0  0  0  0  0
  -29.0356    1.7492   -6.7245 N   0  0  0  0  0  0  0  0  0  0  0  0
  -30.2733    1.4176   -6.3468 N   0  0  0  0  0  0  0  0  0  0  0  0
  -31.3808    2.2917   -6.7719 C   0  0  0  0  0  0  0  0  0  0  0  0
  -30.2670    0.1898   -5.6180 C   0  0  0  0  0  0  0  0  0  0  0  0
  -26.3639  -10.8008   -4.3898 C   0  0  0  0  0  0  0  0  0  0  0  0
  -27.0187  -11.6735   -3.5477 C   0  0  0  0  0  0  0  0  0  0  0  0
  -28.4117  -11.6445   -3.4920 C   0  0  0  0  0  0  0  0  0  0  0  0
  -29.1357  -10.7254   -4.2501 C   0  0  0  0  0  0  0  0  0  0  0  0
  -28.5122   -9.7833   -5.0442 C   0  0  0  0  0  0  0  0  0  0  0  0
  -27.1272   -9.9882   -5.2343 C   0  0  0  0  0  0  0  0  0  0  0  0
  -24.4131   -9.5674   -4.7720 C   0  0  0  0  0  0  0  0  0  0  0  0
  -24.9933  -10.8093   -4.3601 O   0  0  0  0  0  0  0  0  0  0  0  0
  -29.1839  -12.4390   -2.6912 O   0  0  0  0  0  0  0  0  0  0  0  0
  -30.5729  -12.1811   -2.8103 C   0  0  0  0  0  0  0  0  0  0  0  0
  -30.1186   -9.1225   -6.7930 C   0  0  0  0  0  0  0  0  0  0  0  0
  -29.2936   -9.3499   -8.0271 C   0  0  0  0  0  0  0  0  0  0  0  0
  -28.6178   -9.5306   -9.0144 C   0  0  0  0  0  0  0  0  0  0  0  0
  -27.7773   -9.7697  -10.2293 C   0  0  0  0  0  0  0  0  0  0  0  0
  -26.7039  -10.8250   -9.9645 C   0  0  0  0  0  0  0  0  0  0  0  0
  -28.6274  -10.1957  -11.4274 C   0  0  0  0  0  0  0  0  0  0  0  0
  -27.0959   -8.5725  -10.6087 O   0  0  0  0  0  0  0  0  0  0  0  0
  -26.6338   -8.2413   -9.8208 H   0  0  0  0  0  0  0  0  0  0  0  0
 24 25  1  0  0  0
 25 18  1  0  0  0
 18 19  1  0  0  0
 18 23  2  0  0  0
 19 20  2  0  0  0
 20 26  1  0  0  0
 20 21  1  0  0  0
 26 27  1  0  0  0
 21 22  2  0  0  0
 22  1  1  0  0  0
 22 23  1  0  0  0
  1 28  1  0  0  0
  1  2  1  0  0  0
 28 29  1  0  0  0
 29 30  3  0  0  0
 30 31  1  0  0  0
 31 32  1  0  0  0
 31 33  1  0  0  0
 31 34  1  0  0  0
 34 35  1  0  0  0
  2  3  1  0  0  0
  2 11  2  0  0  0
  3  4  2  0  0  0
  4  5  1  0  0  0
  5  6  1  0  0  0
  5 10  2  0  0  0
  6  7  2  0  0  0
  7  8  1  0  0  0
  8 12  1  0  0  0
  8  9  2  0  0  0
 12 13  1  0  0  0
 12 17  2  0  0  0
 13 14  2  0  0  0
 14 15  1  0  0  0
 15 16  1  0  0  0
 15 17  1  0  0  0
  9 10  1  0  0  0
 10 11  1  0  0  0
M  END
> <minimizedAffinity>
-8.52118

$$$$
