CHEMBL1934321


 39 43  0  0  0  0  0  0  0  0999 V2000
  -28.8161   -3.1273   -4.8526 N   0  0  0  0  0  0  0  0  0  0  0  0
  -27.9724   -3.0976   -4.2929 H   0  0  0  0  0  0  0  0  0  0  0  0
  -28.5515   -8.1910   -4.0343 C   0  0  0  0  0  0  0  0  0  0  0  0
  -27.6270   -7.3137   -4.5793 C   0  0  0  0  0  0  0  0  0  0  0  0
  -27.9495   -5.9601   -4.6971 C   0  0  0  0  0  0  0  0  0  0  0  0
  -29.2189   -5.4766   -4.2813 C   0  0  0  0  0  0  0  0  0  0  0  0
  -29.6888   -4.1524   -4.3911 C   0  0  0  0  0  0  0  0  0  0  0  0
  -30.9394   -3.8205   -4.0121 N   0  0  0  0  0  0  0  0  0  0  0  0
  -31.7028   -4.7710   -3.4759 C   0  0  0  0  0  0  0  0  0  0  0  0
  -31.3462   -6.0382   -3.2871 N   0  0  0  0  0  0  0  0  0  0  0  0
  -30.1256   -6.3746   -3.6988 C   0  0  0  0  0  0  0  0  0  0  0  0
  -29.7639   -7.6971   -3.5470 C   0  0  0  0  0  0  0  0  0  0  0  0
  -28.2041   -9.5203   -4.0166 O   0  0  0  0  0  0  0  0  0  0  0  0
  -26.8675   -9.7779   -4.4666 C   0  0  0  0  0  0  0  0  0  0  0  0
  -23.0017  -11.9733   -6.0925 C   0  0  0  0  0  0  0  0  0  0  0  0
  -23.7968  -11.7741   -4.8782 N   0  0  0  0  0  0  0  0  0  0  0  0
  -23.7947  -10.3530   -4.5043 C   0  0  0  0  0  0  0  0  0  0  0  0
  -24.6424  -10.0935   -3.2575 C   0  0  0  0  0  0  0  0  0  0  0  0
  -26.0827  -10.5925   -3.4289 C   0  0  0  0  0  0  0  0  0  0  0  0
  -26.0425  -12.0724   -3.8377 C   0  0  0  0  0  0  0  0  0  0  0  0
  -25.1496  -12.3142   -5.0627 C   0  0  0  0  0  0  0  0  0  0  0  0
  -28.5746   -2.7507   -6.1957 C   0  0  0  0  0  0  0  0  0  0  0  0
  -27.9182   -1.5615   -6.5360 C   0  0  0  0  0  0  0  0  0  0  0  0
  -27.7364   -1.1776   -7.8643 C   0  0  0  0  0  0  0  0  0  0  0  0
  -28.1737   -1.9981   -8.9041 C   0  0  0  0  0  0  0  0  0  0  0  0
  -28.7477   -3.2331   -8.5831 C   0  0  0  0  0  0  0  0  0  0  0  0
  -28.9382   -3.6062   -7.2451 C   0  0  0  0  0  0  0  0  0  0  0  0
  -28.1031   -1.4872  -10.3244 C   0  0  0  0  0  0  0  0  0  0  0  0
  -26.7729   -1.6262  -11.0294 C   0  0  0  0  0  0  0  0  0  0  0  0
  -26.1435   -2.6835  -10.9690 O   0  0  0  0  0  0  0  0  0  0  0  0
  -26.3750   -0.5091  -11.7491 N   0  0  0  0  0  0  0  0  0  0  0  0
  -26.7096    0.3824  -11.3992 H   0  0  0  0  0  0  0  0  0  0  0  0
  -25.1797   -0.5017  -12.4945 C   0  0  0  0  0  0  0  0  0  0  0  0
  -25.1345   -0.9782  -13.8115 C   0  0  0  0  0  0  0  0  0  0  0  0
  -23.9236   -1.0200  -14.5072 C   0  0  0  0  0  0  0  0  0  0  0  0
  -22.7524   -0.6090  -13.8764 C   0  0  0  0  0  0  0  0  0  0  0  0
  -22.8119   -0.1188  -12.5754 C   0  0  0  0  0  0  0  0  0  0  0  0
  -21.6798    0.2470  -11.9594 F   0  0  0  0  0  0  0  0  0  0  0  0
  -24.0187   -0.0272  -11.8895 C   0  0  0  0  0  0  0  0  0  0  0  0
 15 16  1  0  0  0
 16 17  1  0  0  0
 16 21  1  0  0  0
 17 18  1  0  0  0
 18 19  1  0  0  0
 19 14  1  0  0  0
 19 20  1  0  0  0
 14 13  1  0  0  0
 13  3  1  0  0  0
  3  4  1  0  0  0
  3 12  2  0  0  0
  4  5  2  0  0  0
  5  6  1  0  0  0
  6  7  1  0  0  0
  6 11  2  0  0  0
  7  1  1  0  0  0
  7  8  2  0  0  0
  1 22  1  0  0  0
  1  2  1  0  0  0
 22 23  1  0  0  0
 22 27  2  0  0  0
 23 24  2  0  0  0
 24 25  1  0  0  0
 25 28  1  0  0  0
 25 26  2  0  0  0
 28 29  1  0  0  0
 29 30  2  0  0  0
 29 31  1  0  0  0
 31 33  1  0  0  0
 31 32  1  0  0  0
 33 34  1  0  0  0
 33 39  2  0  0  0
 34 35  2  0  0  0
 35 36  1  0  0  0
 36 37  2  0  0  0
 37 38  1  0  0  0
 37 39  1  0  0  0
 26 27  1  0  0  0
  8  9  1  0  0  0
  9 10  2  0  0  0
 10 11  1  0  0  0
 11 12  1  0  0  0
 20 21  1  0  0  0
M  END
> <minimizedAffinity>
-9.44231

$$$$
