CHEMBL2023488


 35 38  0  0  0  0  0  0  0  0999 V2000
  -25.0698   -1.3215  -11.7554 C   0  0  0  0  0  0  0  0  0  0  0  0
  -25.6572   -1.6408  -10.5371 C   0  0  0  0  0  0  0  0  0  0  0  0
  -26.9489   -1.9621  -10.3866 C   0  0  0  0  0  0  0  0  0  0  0  0
  -27.7065   -1.9917  -11.5901 C   0  0  0  0  0  0  0  0  0  0  0  0
  -27.0911   -1.7451  -12.8958 C   0  0  0  0  0  0  0  0  0  0  0  0
  -25.7037   -1.4708  -13.0120 C   0  0  0  0  0  0  0  0  0  0  0  0
  -22.8353   -1.6522  -11.2393 C   0  0  0  0  0  0  0  0  0  0  0  0
  -23.8775   -0.6892  -11.5098 O   0  0  0  0  0  0  0  0  0  0  0  0
  -27.2610   -2.3713   -9.1118 O   0  0  0  0  0  0  0  0  0  0  0  0
  -27.9910   -1.7001   -8.0399 C   0  0  0  0  0  0  0  0  0  0  0  0
  -27.6997   -0.3977   -6.9793 C   0  0  0  0  0  0  0  0  0  0  0  0
  -28.0778   -0.2564   -5.6533 C   0  0  0  0  0  0  0  0  0  0  0  0
  -28.5672   -1.3790   -5.9508 N   0  0  0  0  0  0  0  0  0  0  0  0
  -29.0806   -2.5318   -6.2220 C   0  0  0  0  0  0  0  0  0  0  0  0
  -29.5726   -3.2810   -5.2484 C   0  0  0  0  0  0  0  0  0  0  0  0
  -30.0074   -4.5173   -5.5921 C   0  0  0  0  0  0  0  0  0  0  0  0
  -29.7754   -4.9892   -6.9171 C   0  0  0  0  0  0  0  0  0  0  0  0
  -29.1735   -4.1284   -7.8848 C   0  0  0  0  0  0  0  0  0  0  0  0
  -28.7905   -2.8078   -7.4999 C   0  0  0  0  0  0  0  0  0  0  0  0
  -30.6504   -5.2283   -4.6136 O   0  0  0  0  0  0  0  0  0  0  0  0
  -31.5432   -4.4661   -3.7900 C   0  0  0  0  0  0  0  0  0  0  0  0
  -30.0438   -6.2697   -7.3478 O   0  0  0  0  0  0  0  0  0  0  0  0
  -28.9145   -6.9419   -7.9066 C   0  0  0  0  0  0  0  0  0  0  0  0
  -24.9620   -1.4362  -14.4168 C   0  0  0  0  0  0  0  0  0  0  0  0
  -23.8303   -0.3835  -14.5617 C   0  0  0  0  0  0  0  0  0  0  0  0
  -24.0211    0.6086  -15.2481 O   0  0  0  0  0  0  0  0  0  0  0  0
  -22.5760   -0.4465  -13.9915 N   0  0  0  0  0  0  0  0  0  0  0  0
  -22.1656   -1.3356  -13.7483 H   0  0  0  0  0  0  0  0  0  0  0  0
  -21.6953    0.6421  -14.2837 C   0  0  0  0  0  0  0  0  0  0  0  0
  -20.4937    0.5491  -14.9577 C   0  0  0  0  0  0  0  0  0  0  0  0
  -20.0388    1.8316  -15.1368 N   0  0  0  0  0  0  0  0  0  0  0  0
  -18.8359    2.2692  -15.8063 C   0  0  0  0  0  0  0  0  0  0  0  0
  -20.8245    2.7652  -14.5910 N   0  0  0  0  0  0  0  0  0  0  0  0
  -21.8521    2.0719  -14.0828 C   0  0  0  0  0  0  0  0  0  0  0  0
  -22.9228    2.8420  -13.3889 C   0  0  0  0  0  0  0  0  0  0  0  0
  7  8  1  0  0  0
  8  1  1  0  0  0
  1  2  1  0  0  0
  1  6  2  0  0  0
  2  3  2  0  0  0
  3  9  1  0  0  0
  3  4  1  0  0  0
  9 10  1  0  0  0
 10 11  1  0  0  0
 10 19  2  0  0  0
 11 12  2  0  0  0
 12 13  1  0  0  0
 13 14  2  0  0  0
 14 15  1  0  0  0
 14 19  1  0  0  0
 15 16  2  0  0  0
 16 20  1  0  0  0
 16 17  1  0  0  0
 20 21  1  0  0  0
 17 22  1  0  0  0
 17 18  2  0  0  0
 22 23  1  0  0  0
 18 19  1  0  0  0
  4  5  2  0  0  0
  5  6  1  0  0  0
  6 24  1  0  0  0
 24 25  1  0  0  0
 25 26  2  0  0  0
 25 27  1  0  0  0
 27 29  1  0  0  0
 27 28  1  0  0  0
 29 30  2  0  0  0
 29 34  1  0  0  0
 30 31  1  0  0  0
 31 32  1  0  0  0
 31 33  1  0  0  0
 33 34  2  0  0  0
 34 35  1  0  0  0
M  END
> <minimizedAffinity>
-8.51150

$$$$
