CHEMBL1988581


 18 19  0  0  0  0  0  0  0  0999 V2000
  -28.7515    0.6742   -5.0161 C   0  0  0  0  0  0  0  0  0  0  0  0
  -28.6598   -0.5641   -5.8592 C   0  0  0  0  0  0  0  0  0  0  0  0
  -27.9098   -0.5898   -6.9659 C   0  0  0  0  0  0  0  0  0  0  0  0
  -27.8333   -1.8362   -7.7394 C   0  0  0  0  0  0  0  0  0  0  0  0
  -27.1487   -1.8514   -8.7626 O   0  0  0  0  0  0  0  0  0  0  0  0
  -28.5477   -2.9099   -7.2302 N   0  0  0  0  0  0  0  0  0  0  0  0
  -28.4843   -4.1245   -7.8935 C   0  0  0  0  0  0  0  0  0  0  0  0
  -29.1247   -5.2101   -7.4512 C   0  0  0  0  0  0  0  0  0  0  0  0
  -29.9312   -5.1526   -6.2505 C   0  0  0  0  0  0  0  0  0  0  0  0
  -30.0711   -3.9811   -5.5963 C   0  0  0  0  0  0  0  0  0  0  0  0
  -30.8847   -3.8522   -4.4820 O   0  0  0  0  0  0  0  0  0  0  0  0
  -29.3088   -2.7555   -6.0711 C   0  0  0  0  0  0  0  0  0  0  0  0
  -29.3779   -1.6389   -5.4065 N   0  0  0  0  0  0  0  0  0  0  0  0
  -31.4883   -4.6222   -4.4765 H   0  0  0  0  0  0  0  0  0  0  0  0
  -30.5501   -6.4579   -5.7919 C   0  0  0  0  0  0  0  0  0  0  0  0
  -30.4317   -7.5707   -6.7548 N   0  0  0  0  0  0  0  0  0  0  0  0
  -29.7427   -8.7232   -6.1546 C   0  0  0  0  0  0  0  0  0  0  0  0
  -31.7816   -7.9980   -7.1587 C   0  0  0  0  0  0  0  0  0  0  0  0
  1  2  1  0  0  0
  2  3  2  0  0  0
  2 13  1  0  0  0
  3  4  1  0  0  0
  4  5  2  0  0  0
  4  6  1  0  0  0
  6  7  1  0  0  0
  6 12  1  0  0  0
  7  8  2  0  0  0
  8  9  1  0  0  0
  9 15  1  0  0  0
  9 10  2  0  0  0
 15 16  1  0  0  0
 16 17  1  0  0  0
 16 18  1  0  0  0
 10 11  1  0  0  0
 10 12  1  0  0  0
 11 14  1  0  0  0
 12 13  2  0  0  0
M  END
> <minimizedAffinity>
-6.70492

$$$$
