CHEMBL3969861


 37 40  0  0  0  0  0  0  0  0999 V2000
  -26.9339   12.5122  -12.5298 C   0  0  0  0  0  0  0  0  0  0  0  0
  -26.4617   12.3384  -11.2244 C   0  0  0  0  0  0  0  0  0  0  0  0
  -25.0977   12.3428  -10.9435 C   0  0  0  0  0  0  0  0  0  0  0  0
  -24.1812   12.4861  -11.9743 C   0  0  0  0  0  0  0  0  0  0  0  0
  -24.6205   12.5438  -13.3004 C   0  0  0  0  0  0  0  0  0  0  0  0
  -25.9983   12.5747  -13.5772 C   0  0  0  0  0  0  0  0  0  0  0  0
  -29.1184   10.8308  -11.6544 O   0  0  0  0  0  0  0  0  0  0  0  0
  -29.3215   11.8173  -12.3526 C   0  0  0  0  0  0  0  0  0  0  0  0
  -28.3186   12.6588  -12.8263 N   0  0  0  0  0  0  0  0  0  0  0  0
  -30.5883   12.2402  -12.7305 N   0  0  0  0  0  0  0  0  0  0  0  0
  -28.6004   13.5453  -13.2144 H   0  0  0  0  0  0  0  0  0  0  0  0
  -30.6395   12.9966  -13.3942 H   0  0  0  0  0  0  0  0  0  0  0  0
  -31.8174   11.6673  -12.3128 C   0  0  0  0  0  0  0  0  0  0  0  0
  -32.3553   11.8223  -11.0285 C   0  0  0  0  0  0  0  0  0  0  0  0
  -33.5753   11.2370  -10.6825 C   0  0  0  0  0  0  0  0  0  0  0  0
  -34.2803   10.5022  -11.6217 C   0  0  0  0  0  0  0  0  0  0  0  0
  -35.4479    9.9592  -11.2586 F   0  0  0  0  0  0  0  0  0  0  0  0
  -33.7888   10.3379  -12.9125 C   0  0  0  0  0  0  0  0  0  0  0  0
  -32.5456   10.9182  -13.2475 C   0  0  0  0  0  0  0  0  0  0  0  0
  -34.5730    9.5796  -13.9398 C   0  0  0  0  0  0  0  0  0  0  0  0
  -34.7615    8.2601  -13.6765 F   0  0  0  0  0  0  0  0  0  0  0  0
  -35.8214   10.1037  -14.1103 F   0  0  0  0  0  0  0  0  0  0  0  0
  -33.9882    9.6323  -15.1709 F   0  0  0  0  0  0  0  0  0  0  0  0
  -23.7436   12.6585  -14.3664 O   0  0  0  0  0  0  0  0  0  0  0  0
  -23.9577   11.8366  -15.4756 C   0  0  0  0  0  0  0  0  0  0  0  0
  -23.1310   12.0130  -16.5688 C   0  0  0  0  0  0  0  0  0  0  0  0
  -23.3883   11.1965  -17.6531 C   0  0  0  0  0  0  0  0  0  0  0  0
  -24.3496   10.2665  -17.6204 N   0  0  0  0  0  0  0  0  0  0  0  0
  -25.0987   10.1840  -16.5231 C   0  0  0  0  0  0  0  0  0  0  0  0
  -24.9701   10.9524  -15.4448 N   0  0  0  0  0  0  0  0  0  0  0  0
  -22.6380   11.3599  -18.8352 N   0  0  0  0  0  0  0  0  0  0  0  0
  -21.2577   11.3258  -18.8697 C   0  0  0  0  0  0  0  0  0  0  0  0
  -20.4934   11.2056  -17.9205 O   0  0  0  0  0  0  0  0  0  0  0  0
  -23.1428   11.4556  -19.7034 H   0  0  0  0  0  0  0  0  0  0  0  0
  -20.6692   11.4348  -20.2458 C   0  0  0  0  0  0  0  0  0  0  0  0
  -19.4479   10.6083  -20.5959 C   0  0  0  0  0  0  0  0  0  0  0  0
  -19.3168   12.0929  -20.4200 C   0  0  0  0  0  0  0  0  0  0  0  0
  7  8  2  0  0  0
  8  9  1  0  0  0
  8 10  1  0  0  0
  9  1  1  0  0  0
  9 11  1  0  0  0
  1  2  1  0  0  0
  1  6  2  0  0  0
  2  3  2  0  0  0
  3  4  1  0  0  0
  4  5  2  0  0  0
  5 24  1  0  0  0
  5  6  1  0  0  0
 24 25  1  0  0  0
 25 26  1  0  0  0
 25 30  2  0  0  0
 26 27  2  0  0  0
 27 31  1  0  0  0
 27 28  1  0  0  0
 31 32  1  0  0  0
 31 34  1  0  0  0
 32 33  2  0  0  0
 32 35  1  0  0  0
 35 36  1  0  0  0
 35 37  1  0  0  0
 36 37  1  0  0  0
 28 29  2  0  0  0
 29 30  1  0  0  0
 10 13  1  0  0  0
 10 12  1  0  0  0
 13 14  1  0  0  0
 13 19  2  0  0  0
 14 15  2  0  0  0
 15 16  1  0  0  0
 16 17  1  0  0  0
 16 18  2  0  0  0
 18 20  1  0  0  0
 18 19  1  0  0  0
 20 21  1  0  0  0
 20 22  1  0  0  0
 20 23  1  0  0  0
M  END
> <minimizedAffinity>
-6.24902

$$$$
