CHEMBL3915626


 40 44  0  0  0  0  0  0  0  0999 V2000
  -28.1566   -3.1910   -8.0807 C   0  0  0  0  0  0  0  0  0  0  0  0
  -28.4679   -2.2881   -7.0641 C   0  0  0  0  0  0  0  0  0  0  0  0
  -29.1139   -2.7134   -5.9070 C   0  0  0  0  0  0  0  0  0  0  0  0
  -29.4868   -4.0427   -5.7657 C   0  0  0  0  0  0  0  0  0  0  0  0
  -29.2995   -4.9309   -6.8269 C   0  0  0  0  0  0  0  0  0  0  0  0
  -28.6099   -4.5121   -7.9746 C   0  0  0  0  0  0  0  0  0  0  0  0
  -27.6319   -1.7549  -10.0540 C   0  0  0  0  0  0  0  0  0  0  0  0
  -28.5274   -0.9318   -9.8987 O   0  0  0  0  0  0  0  0  0  0  0  0
  -27.4023   -2.8358   -9.2156 N   0  0  0  0  0  0  0  0  0  0  0  0
  -26.5445   -3.3509   -9.3536 H   0  0  0  0  0  0  0  0  0  0  0  0
  -28.2827   -2.1917  -13.0403 C   0  0  0  0  0  0  0  0  0  0  0  0
  -27.0000   -1.8416  -12.4686 N   0  0  0  0  0  0  0  0  0  0  0  0
  -25.9506   -1.6779  -13.2966 N   0  0  0  0  0  0  0  0  0  0  0  0
  -24.9190   -1.4022  -12.4960 C   0  0  0  0  0  0  0  0  0  0  0  0
  -25.3365   -1.3524  -11.1461 C   0  0  0  0  0  0  0  0  0  0  0  0
  -26.6857   -1.6435  -11.1464 C   0  0  0  0  0  0  0  0  0  0  0  0
  -23.5315   -1.1341  -13.0521 C   0  0  0  0  0  0  0  0  0  0  0  0
  -22.8428   -2.4730  -13.3768 C   0  0  0  0  0  0  0  0  0  0  0  0
  -23.6201   -0.2949  -14.3440 C   0  0  0  0  0  0  0  0  0  0  0  0
  -22.6631   -0.3540  -12.0452 C   0  0  0  0  0  0  0  0  0  0  0  0
  -29.7969   -6.3247   -6.7704 C   0  0  0  0  0  0  0  0  0  0  0  0
  -30.7313   -6.6381   -7.5003 O   0  0  0  0  0  0  0  0  0  0  0  0
  -29.2089   -7.3463   -5.8431 C   0  0  0  0  0  0  0  0  0  0  0  0
  -29.3926   -7.3272   -4.4464 C   0  0  0  0  0  0  0  0  0  0  0  0
  -28.7683   -8.2717   -3.6027 C   0  0  0  0  0  0  0  0  0  0  0  0
  -28.1169   -9.3595   -4.2100 C   0  0  0  0  0  0  0  0  0  0  0  0
  -27.4332  -10.5703   -3.8509 C   0  0  0  0  0  0  0  0  0  0  0  0
  -27.9611  -11.5126   -4.6637 N   0  0  0  0  0  0  0  0  0  0  0  0
  -28.0537  -10.8222   -5.8224 N   0  0  0  0  0  0  0  0  0  0  0  0
  -28.2233   -9.4769   -5.5933 C   0  0  0  0  0  0  0  0  0  0  0  0
  -28.5718   -8.4355   -6.4452 C   0  0  0  0  0  0  0  0  0  0  0  0
  -28.1589  -11.3239   -6.6989 H   0  0  0  0  0  0  0  0  0  0  0  0
  -26.0018  -10.7645   -3.6518 C   0  0  0  0  0  0  0  0  0  0  0  0
  -25.0578   -9.8370   -3.9086 C   0  0  0  0  0  0  0  0  0  0  0  0
  -23.7708  -10.1961   -4.5516 C   0  0  0  0  0  0  0  0  0  0  0  0
  -23.5524   -9.8941   -5.8929 C   0  0  0  0  0  0  0  0  0  0  0  0
  -22.4487  -10.4499   -6.5445 C   0  0  0  0  0  0  0  0  0  0  0  0
  -21.5968  -11.2969   -5.8480 C   0  0  0  0  0  0  0  0  0  0  0  0
  -21.8765  -11.5416   -4.5164 C   0  0  0  0  0  0  0  0  0  0  0  0
  -22.9339  -11.0098   -3.8596 N   0  0  0  0  0  0  0  0  0  0  0  0
 11 12  1  0  0  0
 12 13  1  0  0  0
 12 16  1  0  0  0
 13 14  2  0  0  0
 14 17  1  0  0  0
 14 15  1  0  0  0
 17 18  1  0  0  0
 17 19  1  0  0  0
 17 20  1  0  0  0
 15 16  2  0  0  0
 16  7  1  0  0  0
  7  8  2  0  0  0
  7  9  1  0  0  0
  9  1  1  0  0  0
  9 10  1  0  0  0
  1  2  1  0  0  0
  1  6  2  0  0  0
  2  3  2  0  0  0
  3  4  1  0  0  0
  4  5  2  0  0  0
  5 21  1  0  0  0
  5  6  1  0  0  0
 21 22  2  0  0  0
 21 23  1  0  0  0
 23 24  1  0  0  0
 23 31  2  0  0  0
 24 25  2  0  0  0
 25 26  1  0  0  0
 26 27  1  0  0  0
 26 30  2  0  0  0
 27 33  1  0  0  0
 27 28  2  0  0  0
 33 34  2  0  0  0
 34 35  1  0  0  0
 35 36  1  0  0  0
 35 40  2  0  0  0
 36 37  2  0  0  0
 37 38  1  0  0  0
 38 39  2  0  0  0
 39 40  1  0  0  0
 28 29  1  0  0  0
 29 30  1  0  0  0
 29 32  1  0  0  0
 30 31  1  0  0  0
M  END
> <minimizedAffinity>
-10.33784

$$$$
