CHEMBL1940861


 21 23  0  0  0  0  0  0  0  0999 V2000
  -13.4383    0.8630  -17.4460 C   0  0  0  0  0  0  0  0  0  0  0  0
  -14.0498    2.2402  -17.3899 C   0  0  0  0  0  0  0  0  0  0  0  0
  -13.3843    3.3218  -17.9788 C   0  0  0  0  0  0  0  0  0  0  0  0
  -13.9408    4.5960  -17.9342 C   0  0  0  0  0  0  0  0  0  0  0  0
  -15.1703    4.7897  -17.3067 C   0  0  0  0  0  0  0  0  0  0  0  0
  -15.8499    3.7064  -16.7157 C   0  0  0  0  0  0  0  0  0  0  0  0
  -17.0994    3.8705  -16.0852 C   0  0  0  0  0  0  0  0  0  0  0  0
  -17.7645    2.7806  -15.5047 C   0  0  0  0  0  0  0  0  0  0  0  0
  -17.0807    1.5656  -15.5608 C   0  0  0  0  0  0  0  0  0  0  0  0
  -17.6131    0.1120  -14.7959 Cl  0  0  0  0  0  0  0  0  0  0  0  0
  -15.8905    1.3716  -16.1711 N   0  0  0  0  0  0  0  0  0  0  0  0
  -15.2816    2.4181  -16.7483 C   0  0  0  0  0  0  0  0  0  0  0  0
  -19.0679    3.0400  -14.8597 C   0  0  0  0  0  0  0  0  0  0  0  0
  -20.1527    2.2623  -14.9961 C   0  0  0  0  0  0  0  0  0  0  0  0
  -21.4408    2.5908  -14.3274 C   0  0  0  0  0  0  0  0  0  0  0  0
  -21.8390    3.7421  -14.1976 O   0  0  0  0  0  0  0  0  0  0  0  0
  -22.1993    1.4116  -13.9105 C   0  0  0  0  0  0  0  0  0  0  0  0
  -21.9112    0.0313  -14.2046 C   0  0  0  0  0  0  0  0  0  0  0  0
  -22.8382   -0.8364  -13.6698 C   0  0  0  0  0  0  0  0  0  0  0  0
  -24.0518   -0.0126  -12.7965 S   0  0  0  0  0  0  0  0  0  0  0  0
  -23.3290    1.5046  -13.1155 C   0  0  0  0  0  0  0  0  0  0  0  0
  1  2  1  0  0  0
  2  3  1  0  0  0
  2 12  2  0  0  0
  3  4  2  0  0  0
  4  5  1  0  0  0
  5  6  2  0  0  0
  6  7  1  0  0  0
  6 12  1  0  0  0
  7  8  2  0  0  0
  8 13  1  0  0  0
  8  9  1  0  0  0
 13 14  2  0  0  0
 14 15  1  0  0  0
 15 16  2  0  0  0
 15 17  1  0  0  0
 17 18  1  0  0  0
 17 21  2  0  0  0
 18 19  2  0  0  0
 19 20  1  0  0  0
 20 21  1  0  0  0
  9 10  1  0  0  0
  9 11  2  0  0  0
 11 12  1  0  0  0
M  END
> <minimizedAffinity>
-7.81893

$$$$
