CHEMBL2018771


 36 38  0  0  0  0  0  0  0  0999 V2000
  -21.7071    1.0748  -14.2630 C   0  0  0  0  0  0  0  0  0  0  0  0
  -22.6907    1.9655  -14.0429 N   0  0  0  0  0  0  0  0  0  0  0  0
  -22.3449    3.2527  -14.0779 C   0  0  0  0  0  0  0  0  0  0  0  0
  -21.1156    3.7319  -14.3029 N   0  0  0  0  0  0  0  0  0  0  0  0
  -20.1393    2.8345  -14.5053 C   0  0  0  0  0  0  0  0  0  0  0  0
  -18.8310    3.2676  -14.7190 C   0  0  0  0  0  0  0  0  0  0  0  0
  -17.7438    2.3928  -14.9377 C   0  0  0  0  0  0  0  0  0  0  0  0
  -17.9812    1.0130  -14.8655 C   0  0  0  0  0  0  0  0  0  0  0  0
  -19.3012    0.5647  -14.7171 C   0  0  0  0  0  0  0  0  0  0  0  0
  -20.3799    1.4606  -14.5192 C   0  0  0  0  0  0  0  0  0  0  0  0
  -22.0311   -0.2996  -14.2115 N   0  0  0  0  0  0  0  0  0  0  0  0
  -21.8620   -0.7423  -15.1079 H   0  0  0  0  0  0  0  0  0  0  0  0
  -25.2315   -1.8204  -11.8855 C   0  0  0  0  0  0  0  0  0  0  0  0
  -23.9695   -1.5607  -11.3260 C   0  0  0  0  0  0  0  0  0  0  0  0
  -22.9152   -1.0663  -12.0930 C   0  0  0  0  0  0  0  0  0  0  0  0
  -23.0687   -0.8774  -13.4600 C   0  0  0  0  0  0  0  0  0  0  0  0
  -24.3234   -1.1512  -14.0266 C   0  0  0  0  0  0  0  0  0  0  0  0
  -25.4166   -1.6006  -13.2583 C   0  0  0  0  0  0  0  0  0  0  0  0
  -26.7402   -1.7783  -13.9496 C   0  0  0  0  0  0  0  0  0  0  0  0
  -27.3601   -1.5962  -10.6436 C   0  0  0  0  0  0  0  0  0  0  0  0
  -27.6836   -0.4710  -11.0000 O   0  0  0  0  0  0  0  0  0  0  0  0
  -26.2895   -2.3178  -11.0929 N   0  0  0  0  0  0  0  0  0  0  0  0
  -26.2660   -3.2803  -10.7891 H   0  0  0  0  0  0  0  0  0  0  0  0
  -28.0228   -2.2785   -9.6743 O   0  0  0  0  0  0  0  0  0  0  0  0
  -28.2780   -2.7936   -7.3440 C   0  0  0  0  0  0  0  0  0  0  0  0
  -27.7751   -1.7775   -8.3530 C   0  0  0  0  0  0  0  0  0  0  0  0
  -17.0922   -0.0091  -15.0763 O   0  0  0  0  0  0  0  0  0  0  0  0
  -16.0886   -0.2094  -14.0803 C   0  0  0  0  0  0  0  0  0  0  0  0
  -16.5962    3.0828  -15.2624 O   0  0  0  0  0  0  0  0  0  0  0  0
  -16.6994    4.1442  -16.2046 C   0  0  0  0  0  0  0  0  0  0  0  0
  -15.4262    4.4298  -17.0096 C   0  0  0  0  0  0  0  0  0  0  0  0
  -14.3633    3.4154  -16.7550 N   0  0  0  0  0  0  0  0  0  0  0  0
  -14.2561    2.3688  -17.7913 C   0  0  0  0  0  0  0  0  0  0  0  0
  -14.6688    0.9625  -17.3694 C   0  0  0  0  0  0  0  0  0  0  0  0
  -13.0835    4.0808  -16.4640 C   0  0  0  0  0  0  0  0  0  0  0  0
  -13.0454    4.8162  -15.1241 C   0  0  0  0  0  0  0  0  0  0  0  0
 25 26  1  0  0  0
 26 24  1  0  0  0
 24 20  1  0  0  0
 20 21  2  0  0  0
 20 22  1  0  0  0
 22 13  1  0  0  0
 22 23  1  0  0  0
 13 14  1  0  0  0
 13 18  2  0  0  0
 14 15  2  0  0  0
 15 16  1  0  0  0
 16 11  1  0  0  0
 16 17  2  0  0  0
 11  1  1  0  0  0
 11 12  1  0  0  0
  1  2  1  0  0  0
  1 10  2  0  0  0
  2  3  2  0  0  0
  3  4  1  0  0  0
  4  5  2  0  0  0
  5  6  1  0  0  0
  5 10  1  0  0  0
  6  7  2  0  0  0
  7 29  1  0  0  0
  7  8  1  0  0  0
 29 30  1  0  0  0
 30 31  1  0  0  0
 31 32  1  0  0  0
 32 33  1  0  0  0
 32 35  1  0  0  0
 33 34  1  0  0  0
 35 36  1  0  0  0
  8 27  1  0  0  0
  8  9  2  0  0  0
 27 28  1  0  0  0
  9 10  1  0  0  0
 17 18  1  0  0  0
 18 19  1  0  0  0
M  END
> <minimizedAffinity>
-8.32992

$$$$
