CHEMBL3949794


 44 48  0  0  0  0  0  0  0  0999 V2000
  -28.0378   -2.5518   -9.2407 N   0  0  0  0  0  0  0  0  0  0  0  0
  -26.9739   -1.9699   -9.9086 C   0  0  0  0  0  0  0  0  0  0  0  0
  -26.1574   -1.2088   -9.3994 O   0  0  0  0  0  0  0  0  0  0  0  0
  -26.9188   -2.3070  -11.2576 N   0  0  0  0  0  0  0  0  0  0  0  0
  -28.5136   -3.3084   -9.7098 H   0  0  0  0  0  0  0  0  0  0  0  0
  -27.8193   -2.3851  -11.7087 H   0  0  0  0  0  0  0  0  0  0  0  0
  -25.8511   -1.7851  -12.0380 C   0  0  0  0  0  0  0  0  0  0  0  0
  -26.0070   -1.5910  -13.4181 C   0  0  0  0  0  0  0  0  0  0  0  0
  -24.9204   -1.2438  -14.2228 C   0  0  0  0  0  0  0  0  0  0  0  0
  -23.6716   -1.0079  -13.6458 C   0  0  0  0  0  0  0  0  0  0  0  0
  -23.5267   -1.1898  -12.2660 C   0  0  0  0  0  0  0  0  0  0  0  0
  -22.3215   -1.0456  -11.6947 F   0  0  0  0  0  0  0  0  0  0  0  0
  -24.6083   -1.5527  -11.4543 C   0  0  0  0  0  0  0  0  0  0  0  0
  -22.5496   -0.6641  -14.3766 O   0  0  0  0  0  0  0  0  0  0  0  0
  -22.1167    0.6500  -14.3765 C   0  0  0  0  0  0  0  0  0  0  0  0
  -22.8505    1.6936  -13.8220 C   0  0  0  0  0  0  0  0  0  0  0  0
  -22.3414    2.9666  -13.9337 C   0  0  0  0  0  0  0  0  0  0  0  0
  -21.1512    3.2390  -14.4894 N   0  0  0  0  0  0  0  0  0  0  0  0
  -20.4011    2.2273  -14.9592 C   0  0  0  0  0  0  0  0  0  0  0  0
  -20.8534    0.9117  -14.9240 C   0  0  0  0  0  0  0  0  0  0  0  0
  -19.1282    2.5137  -15.4992 N   0  0  0  0  0  0  0  0  0  0  0  0
  -17.9373    2.1145  -14.9114 C   0  0  0  0  0  0  0  0  0  0  0  0
  -17.8088    1.4975  -13.8613 O   0  0  0  0  0  0  0  0  0  0  0  0
  -19.0920    3.0448  -16.3527 H   0  0  0  0  0  0  0  0  0  0  0  0
  -16.6750    2.4806  -15.6154 C   0  0  0  0  0  0  0  0  0  0  0  0
  -15.8762    1.4085  -16.3183 C   0  0  0  0  0  0  0  0  0  0  0  0
  -15.2650    2.1833  -15.1855 C   0  0  0  0  0  0  0  0  0  0  0  0
  -28.9841   -3.1279   -5.6266 C   0  0  0  0  0  0  0  0  0  0  0  0
  -28.6309   -3.3393   -6.9640 C   0  0  0  0  0  0  0  0  0  0  0  0
  -28.3774   -2.3071   -7.8815 C   0  0  0  0  0  0  0  0  0  0  0  0
  -28.4635   -0.9904   -7.4287 C   0  0  0  0  0  0  0  0  0  0  0  0
  -28.8214   -0.7255   -6.0951 C   0  0  0  0  0  0  0  0  0  0  0  0
  -29.0780   -1.7990   -5.2185 C   0  0  0  0  0  0  0  0  0  0  0  0
  -30.3697   -6.4206   -6.6696 C   0  0  0  0  0  0  0  0  0  0  0  0
  -30.4684   -6.2933   -5.1499 C   0  0  0  0  0  0  0  0  0  0  0  0
  -30.5330   -4.8248   -4.6671 C   0  0  0  0  0  0  0  0  0  0  0  0
  -29.2140   -4.1780   -4.7558 N   0  0  0  0  0  0  0  0  0  0  0  0
  -28.1315   -4.9661   -4.1336 C   0  0  0  0  0  0  0  0  0  0  0  0
  -28.1329   -6.4126   -4.6459 C   0  0  0  0  0  0  0  0  0  0  0  0
  -29.4200   -7.0337   -4.4968 O   0  0  0  0  0  0  0  0  0  0  0  0
  -28.9482    0.6798   -5.5643 C   0  0  0  0  0  0  0  0  0  0  0  0
  -28.1329    0.9394   -4.5046 F   0  0  0  0  0  0  0  0  0  0  0  0
  -28.6452    1.6178   -6.5054 F   0  0  0  0  0  0  0  0  0  0  0  0
  -30.2108    0.9704   -5.1440 F   0  0  0  0  0  0  0  0  0  0  0  0
 34 35  1  0  0  0
 35 36  1  0  0  0
 35 40  1  0  0  0
 36 37  1  0  0  0
 37 28  1  0  0  0
 37 38  1  0  0  0
 28 29  1  0  0  0
 28 33  2  0  0  0
 29 30  2  0  0  0
 30  1  1  0  0  0
 30 31  1  0  0  0
  1  2  1  0  0  0
  1  5  1  0  0  0
  2  3  2  0  0  0
  2  4  1  0  0  0
  4  7  1  0  0  0
  4  6  1  0  0  0
  7  8  1  0  0  0
  7 13  2  0  0  0
  8  9  2  0  0  0
  9 10  1  0  0  0
 10 14  1  0  0  0
 10 11  2  0  0  0
 14 15  1  0  0  0
 15 16  1  0  0  0
 15 20  2  0  0  0
 16 17  2  0  0  0
 17 18  1  0  0  0
 18 19  2  0  0  0
 19 21  1  0  0  0
 19 20  1  0  0  0
 21 22  1  0  0  0
 21 24  1  0  0  0
 22 23  2  0  0  0
 22 25  1  0  0  0
 25 26  1  0  0  0
 25 27  1  0  0  0
 26 27  1  0  0  0
 11 12  1  0  0  0
 11 13  1  0  0  0
 31 32  2  0  0  0
 32 41  1  0  0  0
 32 33  1  0  0  0
 41 42  1  0  0  0
 41 43  1  0  0  0
 41 44  1  0  0  0
 38 39  1  0  0  0
 39 40  1  0  0  0
M  END
> <minimizedAffinity>
-13.14167

$$$$
