CHEMBL3758229


 31 33  0  0  0  0  0  0  0  0999 V2000
  -29.8372   -4.0745   -5.0449 C   0  0  0  0  0  0  0  0  0  0  0  0
  -29.4275   -2.7388   -4.9845 C   0  0  0  0  0  0  0  0  0  0  0  0
  -28.8479   -2.0907   -6.0634 C   0  0  0  0  0  0  0  0  0  0  0  0
  -28.4505   -0.8290   -5.8859 N   0  0  0  0  0  0  0  0  0  0  0  0
  -27.8757   -0.2310   -6.9306 C   0  0  0  0  0  0  0  0  0  0  0  0
  -27.6898   -0.7728   -8.1329 N   0  0  0  0  0  0  0  0  0  0  0  0
  -28.1127   -2.0401   -8.3118 C   0  0  0  0  0  0  0  0  0  0  0  0
  -28.6997   -2.7811   -7.2720 C   0  0  0  0  0  0  0  0  0  0  0  0
  -29.1362   -4.1263   -7.3590 C   0  0  0  0  0  0  0  0  0  0  0  0
  -29.7368   -4.7582   -6.2674 C   0  0  0  0  0  0  0  0  0  0  0  0
  -31.6792   -4.4933   -3.5587 C   0  0  0  0  0  0  0  0  0  0  0  0
  -30.3388   -4.7482   -3.9671 O   0  0  0  0  0  0  0  0  0  0  0  0
  -27.9703   -2.6229   -9.6029 N   0  0  0  0  0  0  0  0  0  0  0  0
  -28.8894   -2.8625   -9.9598 H   0  0  0  0  0  0  0  0  0  0  0  0
  -27.1280   -2.0922  -10.6072 C   0  0  0  0  0  0  0  0  0  0  0  0
  -27.5807   -1.9873  -11.9315 C   0  0  0  0  0  0  0  0  0  0  0  0
  -26.7313   -1.5518  -12.9484 C   0  0  0  0  0  0  0  0  0  0  0  0
  -25.4208   -1.2024  -12.6425 C   0  0  0  0  0  0  0  0  0  0  0  0
  -24.3533   -0.7151  -13.9003 Cl  0  0  0  0  0  0  0  0  0  0  0  0
  -24.9647   -1.2584  -11.3266 C   0  0  0  0  0  0  0  0  0  0  0  0
  -25.8213   -1.6936  -10.3095 C   0  0  0  0  0  0  0  0  0  0  0  0
  -30.1458   -6.0507   -6.5071 O   0  0  0  0  0  0  0  0  0  0  0  0
  -29.1666   -6.8373   -7.1877 C   0  0  0  0  0  0  0  0  0  0  0  0
  -29.1596   -8.2735   -6.6593 C   0  0  0  0  0  0  0  0  0  0  0  0
  -28.1262   -8.3810   -5.5390 C   0  0  0  0  0  0  0  0  0  0  0  0
  -28.7079   -8.3908   -4.1456 C   0  0  0  0  0  0  0  0  0  0  0  0
  -29.0416   -9.3979   -3.5261 O   0  0  0  0  0  0  0  0  0  0  0  0
  -28.8201   -7.1244   -3.6161 N   0  0  0  0  0  0  0  0  0  0  0  0
  -29.4361   -7.0309   -2.3496 O   0  0  0  0  0  0  0  0  0  0  0  0
  -28.8228   -6.2834   -4.1827 H   0  0  0  0  0  0  0  0  0  0  0  0
  -29.6005   -7.9710   -2.1241 H   0  0  0  0  0  0  0  0  0  0  0  0
 11 12  1  0  0  0
 12  1  1  0  0  0
  1  2  1  0  0  0
  1 10  2  0  0  0
  2  3  2  0  0  0
  3  4  1  0  0  0
  3  8  1  0  0  0
  4  5  2  0  0  0
  5  6  1  0  0  0
  6  7  2  0  0  0
  7 13  1  0  0  0
  7  8  1  0  0  0
 13 15  1  0  0  0
 13 14  1  0  0  0
 15 16  1  0  0  0
 15 21  2  0  0  0
 16 17  2  0  0  0
 17 18  1  0  0  0
 18 19  1  0  0  0
 18 20  2  0  0  0
 20 21  1  0  0  0
  8  9  2  0  0  0
  9 10  1  0  0  0
 10 22  1  0  0  0
 22 23  1  0  0  0
 23 24  1  0  0  0
 24 25  1  0  0  0
 25 26  1  0  0  0
 26 27  2  0  0  0
 26 28  1  0  0  0
 28 29  1  0  0  0
 28 30  1  0  0  0
 29 31  1  0  0  0
M  END
> <minimizedAffinity>
-8.18733

$$$$
