CHEMBL3690396


 27 29  0  0  0  0  0  0  0  0999 V2000
  -27.7961   -8.0138   -4.5736 C   0  0  0  0  0  0  0  0  0  0  0  0
  -28.7992   -8.4682   -3.7254 C   0  0  0  0  0  0  0  0  0  0  0  0
  -29.7063   -7.6562   -3.1221 N   0  0  0  0  0  0  0  0  0  0  0  0
  -29.6144   -6.3307   -3.3803 C   0  0  0  0  0  0  0  0  0  0  0  0
  -28.6928   -5.7686   -4.2537 C   0  0  0  0  0  0  0  0  0  0  0  0
  -27.7676   -6.6431   -4.8437 C   0  0  0  0  0  0  0  0  0  0  0  0
  -28.6514   -4.3467   -4.6022 C   0  0  0  0  0  0  0  0  0  0  0  0
  -28.4070   -3.2598   -3.7747 C   0  0  0  0  0  0  0  0  0  0  0  0
  -28.1510   -2.1191   -4.4813 N   0  0  0  0  0  0  0  0  0  0  0  0
  -28.2312   -2.4747   -5.7432 C   0  0  0  0  0  0  0  0  0  0  0  0
  -27.9301   -1.7463   -6.9294 C   0  0  0  0  0  0  0  0  0  0  0  0
  -28.1170   -2.3222   -8.1309 C   0  0  0  0  0  0  0  0  0  0  0  0
  -27.6583   -1.5102   -9.5797 Cl  0  0  0  0  0  0  0  0  0  0  0  0
  -28.6679   -3.6620   -8.2493 C   0  0  0  0  0  0  0  0  0  0  0  0
  -28.8934   -4.3768   -7.1333 C   0  0  0  0  0  0  0  0  0  0  0  0
  -28.6404   -3.8039   -5.8823 N   0  0  0  0  0  0  0  0  0  0  0  0
  -25.1845   -8.8856   -3.5020 O   0  0  0  0  0  0  0  0  0  0  0  0
  -25.5859   -9.1593   -4.6224 C   0  0  0  0  0  0  0  0  0  0  0  0
  -24.8314   -9.8922   -5.5141 N   0  0  0  0  0  0  0  0  0  0  0  0
  -26.8007   -8.8167   -5.1640 N   0  0  0  0  0  0  0  0  0  0  0  0
  -24.9920   -9.6989   -6.4926 H   0  0  0  0  0  0  0  0  0  0  0  0
  -26.9987   -9.1813   -6.0891 H   0  0  0  0  0  0  0  0  0  0  0  0
  -23.4561  -10.2506   -5.1524 C   0  0  0  0  0  0  0  0  0  0  0  0
  -22.4853  -10.3973   -6.3348 C   0  0  0  0  0  0  0  0  0  0  0  0
  -21.3381  -11.0132   -5.9712 F   0  0  0  0  0  0  0  0  0  0  0  0
  -23.0253  -11.0764   -7.3615 F   0  0  0  0  0  0  0  0  0  0  0  0
  -22.1359   -9.1665   -6.7982 F   0  0  0  0  0  0  0  0  0  0  0  0
 17 18  2  0  0  0
 18 19  1  0  0  0
 18 20  1  0  0  0
 19 23  1  0  0  0
 19 21  1  0  0  0
 23 24  1  0  0  0
 24 25  1  0  0  0
 24 26  1  0  0  0
 24 27  1  0  0  0
 20  1  1  0  0  0
 20 22  1  0  0  0
  1  2  1  0  0  0
  1  6  2  0  0  0
  2  3  2  0  0  0
  3  4  1  0  0  0
  4  5  2  0  0  0
  5  7  1  0  0  0
  5  6  1  0  0  0
  7  8  2  0  0  0
  7 16  1  0  0  0
  8  9  1  0  0  0
  9 10  2  0  0  0
 10 11  1  0  0  0
 10 16  1  0  0  0
 11 12  2  0  0  0
 12 13  1  0  0  0
 12 14  1  0  0  0
 14 15  2  0  0  0
 15 16  1  0  0  0
M  END
> <minimizedAffinity>
-8.04493

$$$$
