CHEMBL3403512


 22 25  0  0  0  0  0  0  0  0999 V2000
  -32.3110   -8.9910   -7.6326 C   0  0  0  0  0  0  0  0  0  0  0  0
  -31.1947   -8.4683   -6.7797 C   0  0  0  0  0  0  0  0  0  0  0  0
  -31.3089   -7.2025   -6.3301 N   0  0  0  0  0  0  0  0  0  0  0  0
  -30.3427   -6.6359   -5.5454 C   0  0  0  0  0  0  0  0  0  0  0  0
  -29.2187   -7.4424   -5.2698 C   0  0  0  0  0  0  0  0  0  0  0  0
  -27.9669   -7.3174   -4.5984 C   0  0  0  0  0  0  0  0  0  0  0  0
  -27.3234   -8.5283   -4.7213 C   0  0  0  0  0  0  0  0  0  0  0  0
  -26.0225   -9.0406   -4.2489 C   0  0  0  0  0  0  0  0  0  0  0  0
  -28.0857   -9.3887   -5.4466 O   0  0  0  0  0  0  0  0  0  0  0  0
  -29.2283   -8.7295   -5.7921 C   0  0  0  0  0  0  0  0  0  0  0  0
  -30.1781   -9.3010   -6.5390 N   0  0  0  0  0  0  0  0  0  0  0  0
  -30.5507   -5.3128   -5.1019 N   0  0  0  0  0  0  0  0  0  0  0  0
  -31.4068   -5.0951   -3.9389 C   0  0  0  0  0  0  0  0  0  0  0  0
  -29.8859   -4.1659   -5.6119 C   0  0  0  0  0  0  0  0  0  0  0  0
  -29.6645   -3.0092   -4.8200 C   0  0  0  0  0  0  0  0  0  0  0  0
  -28.9654   -1.8952   -5.3053 C   0  0  0  0  0  0  0  0  0  0  0  0
  -28.4933   -1.9499   -6.5933 C   0  0  0  0  0  0  0  0  0  0  0  0
  -28.7094   -3.0462   -7.3889 C   0  0  0  0  0  0  0  0  0  0  0  0
  -29.4001   -4.1523   -6.9346 C   0  0  0  0  0  0  0  0  0  0  0  0
  -28.1620   -2.9042   -8.6266 O   0  0  0  0  0  0  0  0  0  0  0  0
  -27.5946   -1.5827   -8.5208 C   0  0  0  0  0  0  0  0  0  0  0  0
  -27.7857   -0.9770   -7.2255 O   0  0  0  0  0  0  0  0  0  0  0  0
  1  2  1  0  0  0
  2  3  1  0  0  0
  2 11  2  0  0  0
  3  4  2  0  0  0
  4 12  1  0  0  0
  4  5  1  0  0  0
 12 13  1  0  0  0
 12 14  1  0  0  0
 14 15  1  0  0  0
 14 19  2  0  0  0
 15 16  2  0  0  0
 16 17  1  0  0  0
 17 18  2  0  0  0
 17 22  1  0  0  0
 18 19  1  0  0  0
 18 20  1  0  0  0
 20 21  1  0  0  0
 21 22  1  0  0  0
  5  6  1  0  0  0
  5 10  2  0  0  0
  6  7  2  0  0  0
  7  8  1  0  0  0
  7  9  1  0  0  0
  9 10  1  0  0  0
 10 11  1  0  0  0
M  END
> <minimizedAffinity>
-7.52536

$$$$
