CHEMBL92461


 22 25  0  0  0  0  0  0  0  0999 V2000
  -30.1947   -6.3639   -6.5689 C   0  0  0  0  0  0  0  0  0  0  0  0
  -30.2563   -5.0600   -7.2989 C   0  0  0  0  0  0  0  0  0  0  0  0
  -29.8927   -3.9020   -6.8385 N   0  0  0  0  0  0  0  0  0  0  0  0
  -29.3980   -3.8907   -5.5559 C   0  0  0  0  0  0  0  0  0  0  0  0
  -28.9535   -2.8768   -4.7308 C   0  0  0  0  0  0  0  0  0  0  0  0
  -28.5608   -3.5238   -3.5442 C   0  0  0  0  0  0  0  0  0  0  0  0
  -28.7452   -4.8445   -3.5823 N   0  0  0  0  0  0  0  0  0  0  0  0
  -29.2726   -5.0708   -4.8102 N   0  0  0  0  0  0  0  0  0  0  0  0
  -29.6800   -6.2922   -5.3327 C   0  0  0  0  0  0  0  0  0  0  0  0
  -31.5747  -10.0057   -8.3119 C   0  0  0  0  0  0  0  0  0  0  0  0
  -30.2627   -9.5809   -8.5195 C   0  0  0  0  0  0  0  0  0  0  0  0
  -29.8109   -8.3890   -7.9429 C   0  0  0  0  0  0  0  0  0  0  0  0
  -30.6683   -7.6123   -7.1556 C   0  0  0  0  0  0  0  0  0  0  0  0
  -31.9880   -8.0313   -6.9632 C   0  0  0  0  0  0  0  0  0  0  0  0
  -32.4378   -9.2198   -7.5450 C   0  0  0  0  0  0  0  0  0  0  0  0
  -31.7703  -12.3588   -8.2061 C   0  0  0  0  0  0  0  0  0  0  0  0
  -32.1305  -11.1372   -8.8427 O   0  0  0  0  0  0  0  0  0  0  0  0
  -28.8907   -1.4340   -4.9852 C   0  0  0  0  0  0  0  0  0  0  0  0
  -27.7075   -0.6554   -4.7939 C   0  0  0  0  0  0  0  0  0  0  0  0
  -27.9009    0.6757   -5.0965 C   0  0  0  0  0  0  0  0  0  0  0  0
  -29.5006    0.9930   -5.6063 S   0  0  0  0  0  0  0  0  0  0  0  0
  -29.9394   -0.6520   -5.4248 C   0  0  0  0  0  0  0  0  0  0  0  0
 16 17  1  0  0  0
 17 10  1  0  0  0
 10 11  1  0  0  0
 10 15  2  0  0  0
 11 12  2  0  0  0
 12 13  1  0  0  0
 13  1  1  0  0  0
 13 14  2  0  0  0
  1  2  1  0  0  0
  1  9  2  0  0  0
  2  3  2  0  0  0
  3  4  1  0  0  0
  4  5  2  0  0  0
  4  8  1  0  0  0
  5 18  1  0  0  0
  5  6  1  0  0  0
 18 19  1  0  0  0
 18 22  2  0  0  0
 19 20  2  0  0  0
 20 21  1  0  0  0
 21 22  1  0  0  0
  6  7  2  0  0  0
  7  8  1  0  0  0
  8  9  1  0  0  0
 14 15  1  0  0  0
M  END
> <minimizedAffinity>
-7.81299

$$$$
