CHEMBL3925225


 38 41  0  0  0  0  0  0  0  0999 V2000
  -25.6622   -1.6166  -12.2019 C   0  0  0  0  0  0  0  0  0  0  0  0
  -25.6989   -1.4706  -13.5969 C   0  0  0  0  0  0  0  0  0  0  0  0
  -24.5858   -1.0358  -14.3169 C   0  0  0  0  0  0  0  0  0  0  0  0
  -23.4217   -0.6829  -13.6481 C   0  0  0  0  0  0  0  0  0  0  0  0
  -23.4030   -0.7501  -12.2510 C   0  0  0  0  0  0  0  0  0  0  0  0
  -22.2969   -0.4333  -11.5627 F   0  0  0  0  0  0  0  0  0  0  0  0
  -24.5197   -1.1867  -11.5257 C   0  0  0  0  0  0  0  0  0  0  0  0
  -27.9650   -2.7401   -9.5770 N   0  0  0  0  0  0  0  0  0  0  0  0
  -26.8505   -2.0963  -10.0958 C   0  0  0  0  0  0  0  0  0  0  0  0
  -26.0758   -1.4447   -9.4090 O   0  0  0  0  0  0  0  0  0  0  0  0
  -26.7117   -2.2422  -11.4694 N   0  0  0  0  0  0  0  0  0  0  0  0
  -28.3385   -3.5155  -10.1039 H   0  0  0  0  0  0  0  0  0  0  0  0
  -27.5387   -2.5095  -11.9848 H   0  0  0  0  0  0  0  0  0  0  0  0
  -29.7809   -2.2618   -4.1264 C   0  0  0  0  0  0  0  0  0  0  0  0
  -29.2544   -2.3320   -5.5333 C   0  0  0  0  0  0  0  0  0  0  0  0
  -29.2419   -3.5806   -6.1579 C   0  0  0  0  0  0  0  0  0  0  0  0
  -28.7800   -3.7221   -7.4631 C   0  0  0  0  0  0  0  0  0  0  0  0
  -28.3523   -2.6236   -8.2114 C   0  0  0  0  0  0  0  0  0  0  0  0
  -28.3202   -1.3763   -7.5829 C   0  0  0  0  0  0  0  0  0  0  0  0
  -28.7723   -1.2110   -6.2441 C   0  0  0  0  0  0  0  0  0  0  0  0
  -28.7169    0.1833   -5.6537 C   0  0  0  0  0  0  0  0  0  0  0  0
  -27.9290    0.3215   -4.5531 F   0  0  0  0  0  0  0  0  0  0  0  0
  -28.2516    1.0979   -6.5518 F   0  0  0  0  0  0  0  0  0  0  0  0
  -29.9489    0.6316   -5.2793 F   0  0  0  0  0  0  0  0  0  0  0  0
  -22.3496   -0.3958  -14.4600 O   0  0  0  0  0  0  0  0  0  0  0  0
  -21.8190    0.8699  -14.4858 C   0  0  0  0  0  0  0  0  0  0  0  0
  -22.4969    2.0010  -14.0509 C   0  0  0  0  0  0  0  0  0  0  0  0
  -21.8308    3.2029  -14.1215 C   0  0  0  0  0  0  0  0  0  0  0  0
  -20.5962    3.3360  -14.6311 N   0  0  0  0  0  0  0  0  0  0  0  0
  -19.9604    2.2518  -15.1019 C   0  0  0  0  0  0  0  0  0  0  0  0
  -20.5454    0.9930  -15.0518 C   0  0  0  0  0  0  0  0  0  0  0  0
  -18.6803    2.3809  -15.6656 N   0  0  0  0  0  0  0  0  0  0  0  0
  -17.5218    2.0159  -15.0034 C   0  0  0  0  0  0  0  0  0  0  0  0
  -17.4210    1.5337  -13.8843 O   0  0  0  0  0  0  0  0  0  0  0  0
  -18.6121    2.7587  -16.5967 H   0  0  0  0  0  0  0  0  0  0  0  0
  -16.2678    2.2558  -15.7883 C   0  0  0  0  0  0  0  0  0  0  0  0
  -15.5584    1.0709  -16.4124 C   0  0  0  0  0  0  0  0  0  0  0  0
  -14.9483    1.7648  -15.2291 C   0  0  0  0  0  0  0  0  0  0  0  0
 14 15  1  0  0  0
 15 16  1  0  0  0
 15 20  2  0  0  0
 16 17  2  0  0  0
 17 18  1  0  0  0
 18  8  1  0  0  0
 18 19  2  0  0  0
  8  9  1  0  0  0
  8 12  1  0  0  0
  9 10  2  0  0  0
  9 11  1  0  0  0
 11  1  1  0  0  0
 11 13  1  0  0  0
  1  2  1  0  0  0
  1  7  2  0  0  0
  2  3  2  0  0  0
  3  4  1  0  0  0
  4 25  1  0  0  0
  4  5  2  0  0  0
 25 26  1  0  0  0
 26 27  1  0  0  0
 26 31  2  0  0  0
 27 28  2  0  0  0
 28 29  1  0  0  0
 29 30  2  0  0  0
 30 32  1  0  0  0
 30 31  1  0  0  0
 32 33  1  0  0  0
 32 35  1  0  0  0
 33 34  2  0  0  0
 33 36  1  0  0  0
 36 37  1  0  0  0
 36 38  1  0  0  0
 37 38  1  0  0  0
  5  6  1  0  0  0
  5  7  1  0  0  0
 19 20  1  0  0  0
 20 21  1  0  0  0
 21 22  1  0  0  0
 21 23  1  0  0  0
 21 24  1  0  0  0
M  END
> <minimizedAffinity>
-12.14972

$$$$
