CHEMBL269914


 40 44  0  0  0  0  0  0  0  0999 V2000
  -22.9648    0.0621  -13.1779 C   0  0  0  0  0  0  0  0  0  0  0  0
  -23.5247    0.3908  -11.9544 C   0  0  0  0  0  0  0  0  0  0  0  0
  -24.7742   -0.1391  -11.6136 C   0  0  0  0  0  0  0  0  0  0  0  0
  -25.6011   -0.8134  -12.5477 C   0  0  0  0  0  0  0  0  0  0  0  0
  -26.8893   -1.3777  -12.2837 C   0  0  0  0  0  0  0  0  0  0  0  0
  -27.5950   -2.0186  -13.3222 C   0  0  0  0  0  0  0  0  0  0  0  0
  -27.0622   -2.1333  -14.6023 C   0  0  0  0  0  0  0  0  0  0  0  0
  -25.7980   -1.6156  -14.8593 C   0  0  0  0  0  0  0  0  0  0  0  0
  -25.0660   -0.9690  -13.8567 C   0  0  0  0  0  0  0  0  0  0  0  0
  -23.7547   -0.5485  -14.1570 C   0  0  0  0  0  0  0  0  0  0  0  0
  -27.5861   -1.4285  -10.9537 C   0  0  0  0  0  0  0  0  0  0  0  0
  -28.4056   -0.5575  -10.6991 O   0  0  0  0  0  0  0  0  0  0  0  0
  -27.1889   -2.4142  -10.0520 N   0  0  0  0  0  0  0  0  0  0  0  0
  -26.3608   -2.9407  -10.2913 H   0  0  0  0  0  0  0  0  0  0  0  0
  -27.6814   -2.5829   -8.7367 C   0  0  0  0  0  0  0  0  0  0  0  0
  -28.1818   -3.7856   -8.2444 C   0  0  0  0  0  0  0  0  0  0  0  0
  -28.7439   -3.8487   -6.9667 C   0  0  0  0  0  0  0  0  0  0  0  0
  -28.8085   -2.7123   -6.1560 C   0  0  0  0  0  0  0  0  0  0  0  0
  -29.5815   -2.9054   -4.6265 Cl  0  0  0  0  0  0  0  0  0  0  0  0
  -28.2681   -1.5033   -6.6024 C   0  0  0  0  0  0  0  0  0  0  0  0
  -27.6874   -1.4632   -7.8954 C   0  0  0  0  0  0  0  0  0  0  0  0
  -28.2688   -0.2272   -5.7997 C   0  0  0  0  0  0  0  0  0  0  0  0
  -29.4436    0.1372   -5.2305 F   0  0  0  0  0  0  0  0  0  0  0  0
  -27.3679   -0.2828   -4.7748 F   0  0  0  0  0  0  0  0  0  0  0  0
  -27.8839    0.8432   -6.5548 F   0  0  0  0  0  0  0  0  0  0  0  0
  -21.6259    0.2031  -13.4800 O   0  0  0  0  0  0  0  0  0  0  0  0
  -17.1997    2.2173  -15.4110 C   0  0  0  0  0  0  0  0  0  0  0  0
  -18.2695    3.1197  -15.5652 C   0  0  0  0  0  0  0  0  0  0  0  0
  -19.5600    2.8361  -15.1426 C   0  0  0  0  0  0  0  0  0  0  0  0
  -20.4552    3.8355  -15.1518 N   0  0  0  0  0  0  0  0  0  0  0  0
  -21.6840    3.5961  -14.6542 C   0  0  0  0  0  0  0  0  0  0  0  0
  -22.0657    2.3879  -14.1149 C   0  0  0  0  0  0  0  0  0  0  0  0
  -21.1402    1.3474  -14.1002 C   0  0  0  0  0  0  0  0  0  0  0  0
  -19.8557    1.5445  -14.6831 C   0  0  0  0  0  0  0  0  0  0  0  0
  -18.8316    0.5785  -14.8036 C   0  0  0  0  0  0  0  0  0  0  0  0
  -17.4931    0.9110  -15.0342 C   0  0  0  0  0  0  0  0  0  0  0  0
  -15.7491    3.9730  -16.0489 C   0  0  0  0  0  0  0  0  0  0  0  0
  -15.9065    2.6076  -15.6344 O   0  0  0  0  0  0  0  0  0  0  0  0
  -16.6923   -0.1581  -14.7626 O   0  0  0  0  0  0  0  0  0  0  0  0
  -15.9439   -0.2438  -13.5673 C   0  0  0  0  0  0  0  0  0  0  0  0
 37 38  1  0  0  0
 38 27  1  0  0  0
 27 28  1  0  0  0
 27 36  2  0  0  0
 28 29  2  0  0  0
 29 30  1  0  0  0
 29 34  1  0  0  0
 30 31  2  0  0  0
 31 32  1  0  0  0
 32 33  2  0  0  0
 33 26  1  0  0  0
 33 34  1  0  0  0
 26  1  1  0  0  0
  1  2  1  0  0  0
  1 10  2  0  0  0
  2  3  2  0  0  0
  3  4  1  0  0  0
  4  5  1  0  0  0
  4  9  2  0  0  0
  5 11  1  0  0  0
  5  6  2  0  0  0
 11 12  2  0  0  0
 11 13  1  0  0  0
 13 15  1  0  0  0
 13 14  1  0  0  0
 15 16  1  0  0  0
 15 21  2  0  0  0
 16 17  2  0  0  0
 17 18  1  0  0  0
 18 19  1  0  0  0
 18 20  2  0  0  0
 20 22  1  0  0  0
 20 21  1  0  0  0
 22 23  1  0  0  0
 22 24  1  0  0  0
 22 25  1  0  0  0
  6  7  1  0  0  0
  7  8  2  0  0  0
  8  9  1  0  0  0
  9 10  1  0  0  0
 34 35  2  0  0  0
 35 36  1  0  0  0
 36 39  1  0  0  0
 39 40  1  0  0  0
M  END
> <minimizedAffinity>
-12.50520

$$$$
