CHEMBL1929485


 19 22  0  0  0  0  0  0  0  0999 V2000
  -29.2674   -7.8568   -7.4756 C   0  0  0  0  0  0  0  0  0  0  0  0
  -30.1241   -7.7787   -6.3797 C   0  0  0  0  0  0  0  0  0  0  0  0
  -30.4186   -6.5432   -5.7980 C   0  0  0  0  0  0  0  0  0  0  0  0
  -29.7987   -5.3813   -6.2963 C   0  0  0  0  0  0  0  0  0  0  0  0
  -29.8151   -4.0144   -5.9031 C   0  0  0  0  0  0  0  0  0  0  0  0
  -28.8549   -3.3831   -6.6659 C   0  0  0  0  0  0  0  0  0  0  0  0
  -28.4714   -4.2152   -7.6732 N   0  0  0  0  0  0  0  0  0  0  0  0
  -28.9423   -5.4855   -7.3994 C   0  0  0  0  0  0  0  0  0  0  0  0
  -28.6786   -6.7083   -8.0224 C   0  0  0  0  0  0  0  0  0  0  0  0
  -28.3369   -2.0320   -6.3625 C   0  0  0  0  0  0  0  0  0  0  0  0
  -27.8270   -1.1833   -7.2542 N   0  0  0  0  0  0  0  0  0  0  0  0
  -27.5738   -0.0850   -6.5156 N   0  0  0  0  0  0  0  0  0  0  0  0
  -27.7965   -0.2526   -5.1768 C   0  0  0  0  0  0  0  0  0  0  0  0
  -28.2661   -1.5379   -5.0300 C   0  0  0  0  0  0  0  0  0  0  0  0
  -28.5102   -2.3350   -3.7922 C   0  0  0  0  0  0  0  0  0  0  0  0
  -29.9269   -2.8893   -3.6127 C   0  0  0  0  0  0  0  0  0  0  0  0
  -30.6630   -3.3374   -4.8751 C   0  0  0  0  0  0  0  0  0  0  0  0
  -27.8049   -3.9758   -8.3926 H   0  0  0  0  0  0  0  0  0  0  0  0
  -27.2219    0.7418   -6.9873 H   0  0  0  0  0  0  0  0  0  0  0  0
  1  2  1  0  0  0
  1  9  2  0  0  0
  2  3  2  0  0  0
  3  4  1  0  0  0
  4  5  1  0  0  0
  4  8  2  0  0  0
  5  6  2  0  0  0
  5 17  1  0  0  0
  6  7  1  0  0  0
  6 10  1  0  0  0
  7  8  1  0  0  0
  7 18  1  0  0  0
  8  9  1  0  0  0
 10 11  2  0  0  0
 10 14  1  0  0  0
 11 12  1  0  0  0
 12 13  1  0  0  0
 12 19  1  0  0  0
 13 14  2  0  0  0
 14 15  1  0  0  0
 15 16  1  0  0  0
 16 17  1  0  0  0
M  END
> <minimizedAffinity>
-7.45443

$$$$
