CHEMBL3914411


 36 39  0  0  0  0  0  0  0  0999 V2000
  -27.0319   -1.5893   -9.6138 C   0  0  0  0  0  0  0  0  0  0  0  0
  -27.4780   -1.6387   -8.5012 C   0  0  0  0  0  0  0  0  0  0  0  0
  -28.0959   -1.7006   -7.2019 C   0  0  0  0  0  0  0  0  0  0  0  0
  -28.6337   -2.9108   -6.7497 C   0  0  0  0  0  0  0  0  0  0  0  0
  -29.2135   -2.9727   -5.4795 C   0  0  0  0  0  0  0  0  0  0  0  0
  -29.1967   -1.8280   -4.6986 C   0  0  0  0  0  0  0  0  0  0  0  0
  -28.6851   -0.6401   -5.1113 N   0  0  0  0  0  0  0  0  0  0  0  0
  -28.1556   -0.5836   -6.3530 C   0  0  0  0  0  0  0  0  0  0  0  0
  -27.7598    0.6876   -6.7624 N   0  0  0  0  0  0  0  0  0  0  0  0
  -27.8087    1.3068   -5.9580 H   0  0  0  0  0  0  0  0  0  0  0  0
  -26.8585    0.6968   -7.2231 H   0  0  0  0  0  0  0  0  0  0  0  0
  -29.8741   -4.2026   -4.9688 C   0  0  0  0  0  0  0  0  0  0  0  0
  -31.0397   -4.1025   -4.6005 O   0  0  0  0  0  0  0  0  0  0  0  0
  -29.2029   -5.4370   -5.0416 N   0  0  0  0  0  0  0  0  0  0  0  0
  -29.7421   -6.5717   -5.9271 S   0  0  0  0  0  0  0  0  0  0  0  0
  -31.1126   -7.0362   -5.9197 O   0  0  0  0  0  0  0  0  0  0  0  0
  -28.7168   -8.0053   -5.6895 C   0  0  0  0  0  0  0  0  0  0  0  0
  -28.4260   -8.5961   -7.0718 C   0  0  0  0  0  0  0  0  0  0  0  0
  -29.1018   -7.7520   -8.1562 C   0  0  0  0  0  0  0  0  0  0  0  0
  -29.2492   -6.3349   -7.6186 C   0  0  0  0  0  0  0  0  0  0  0  0
  -25.2371   -0.5946  -12.7591 C   0  0  0  0  0  0  0  0  0  0  0  0
  -25.9836   -1.3108  -13.6983 C   0  0  0  0  0  0  0  0  0  0  0  0
  -27.0430   -2.1269  -13.2988 C   0  0  0  0  0  0  0  0  0  0  0  0
  -27.3741   -2.2299  -11.9494 C   0  0  0  0  0  0  0  0  0  0  0  0
  -26.6161   -1.5459  -10.9917 C   0  0  0  0  0  0  0  0  0  0  0  0
  -25.5277   -0.7625  -11.3946 C   0  0  0  0  0  0  0  0  0  0  0  0
  -22.9815    0.0036  -13.6798 C   0  0  0  0  0  0  0  0  0  0  0  0
  -22.5942   -1.1371  -13.9201 O   0  0  0  0  0  0  0  0  0  0  0  0
  -24.2252    0.3209  -13.1336 N   0  0  0  0  0  0  0  0  0  0  0  0
  -24.4589    1.3080  -13.1425 H   0  0  0  0  0  0  0  0  0  0  0  0
  -20.0737    0.2225  -15.2033 C   0  0  0  0  0  0  0  0  0  0  0  0
  -20.9336    1.2951  -14.6371 C   0  0  0  0  0  0  0  0  0  0  0  0
  -20.6438    2.6885  -14.6521 C   0  0  0  0  0  0  0  0  0  0  0  0
  -21.6974    3.3145  -14.0354 C   0  0  0  0  0  0  0  0  0  0  0  0
  -22.6282    2.4100  -13.6453 O   0  0  0  0  0  0  0  0  0  0  0  0
  -22.1666    1.1676  -14.0008 C   0  0  0  0  0  0  0  0  0  0  0  0
 31 32  1  0  0  0
 32 33  1  0  0  0
 32 36  2  0  0  0
 33 34  2  0  0  0
 34 35  1  0  0  0
 35 36  1  0  0  0
 36 27  1  0  0  0
 27 28  2  0  0  0
 27 29  1  0  0  0
 29 21  1  0  0  0
 29 30  1  0  0  0
 21 22  1  0  0  0
 21 26  2  0  0  0
 22 23  2  0  0  0
 23 24  1  0  0  0
 24 25  2  0  0  0
 25  1  1  0  0  0
 25 26  1  0  0  0
  1  2  3  0  0  0
  2  3  1  0  0  0
  3  4  1  0  0  0
  3  8  2  0  0  0
  4  5  2  0  0  0
  5 12  1  0  0  0
  5  6  1  0  0  0
 12 13  2  0  0  0
 12 14  1  0  0  0
 14 15  2  0  0  0
 15 16  2  0  0  0
 15 17  1  0  0  0
 15 20  1  0  0  0
 17 18  1  0  0  0
 18 19  1  0  0  0
 19 20  1  0  0  0
  6  7  2  0  0  0
  7  8  1  0  0  0
  8  9  1  0  0  0
  9 10  1  0  0  0
  9 11  1  0  0  0
M  END
> <minimizedAffinity>
-10.70334

$$$$
