CHEMBL3671511


 39 41  0  0  0  0  0  0  0  0999 V2000
  -16.9348    2.1312  -15.3619 C   0  0  0  0  0  0  0  0  0  0  0  0
  -16.6413    1.0436  -14.5375 C   0  0  0  0  0  0  0  0  0  0  0  0
  -15.3028    0.7264  -14.2163 C   0  0  0  0  0  0  0  0  0  0  0  0
  -14.9028   -0.4098  -13.4939 C   0  0  0  0  0  0  0  0  0  0  0  0
  -13.6099   -0.6510  -13.2089 N   0  0  0  0  0  0  0  0  0  0  0  0
  -12.7141    0.2214  -13.6707 C   0  0  0  0  0  0  0  0  0  0  0  0
  -12.9782    1.3032  -14.4077 N   0  0  0  0  0  0  0  0  0  0  0  0
  -14.2646    1.5424  -14.6859 C   0  0  0  0  0  0  0  0  0  0  0  0
  -14.5816    2.6387  -15.4795 C   0  0  0  0  0  0  0  0  0  0  0  0
  -15.9038    2.9680  -15.8100 C   0  0  0  0  0  0  0  0  0  0  0  0
  -19.1180    3.0313  -14.8703 C   0  0  0  0  0  0  0  0  0  0  0  0
  -18.8238    3.4788  -13.7708 O   0  0  0  0  0  0  0  0  0  0  0  0
  -18.2828    2.3286  -15.7234 N   0  0  0  0  0  0  0  0  0  0  0  0
  -18.4349    2.5685  -16.6963 H   0  0  0  0  0  0  0  0  0  0  0  0
  -21.5752    3.1654  -14.7334 C   0  0  0  0  0  0  0  0  0  0  0  0
  -20.4635    3.2242  -15.4755 C   0  0  0  0  0  0  0  0  0  0  0  0
  -15.8675   -1.3720  -13.0914 N   0  0  0  0  0  0  0  0  0  0  0  0
  -16.5436   -0.9611  -12.4533 H   0  0  0  0  0  0  0  0  0  0  0  0
  -15.5458   -2.7056  -12.7422 C   0  0  0  0  0  0  0  0  0  0  0  0
  -15.1519   -3.6291  -13.7220 C   0  0  0  0  0  0  0  0  0  0  0  0
  -14.7352   -4.9136  -13.3713 C   0  0  0  0  0  0  0  0  0  0  0  0
  -14.7357   -5.2945  -12.0318 C   0  0  0  0  0  0  0  0  0  0  0  0
  -14.0774   -6.9993  -11.5504 Br  0  0  0  0  0  0  0  0  0  0  0  0
  -15.1958   -4.4228  -11.0479 C   0  0  0  0  0  0  0  0  0  0  0  0
  -15.6070   -3.1424  -11.4135 C   0  0  0  0  0  0  0  0  0  0  0  0
  -16.0336   -2.2989  -10.4599 F   0  0  0  0  0  0  0  0  0  0  0  0
  -16.0283    4.1252  -16.5456 O   0  0  0  0  0  0  0  0  0  0  0  0
  -15.3837    4.1088  -17.8214 C   0  0  0  0  0  0  0  0  0  0  0  0
  -14.2886    5.1760  -17.9116 C   0  0  0  0  0  0  0  0  0  0  0  0
  -14.8678    6.5123  -18.0650 N   0  0  0  0  0  0  0  0  0  0  0  0
  -14.8217    7.1430  -19.2775 C   0  0  0  0  0  0  0  0  0  0  0  0
  -14.3503    6.6317  -20.2800 O   0  0  0  0  0  0  0  0  0  0  0  0
  -15.3119    8.4206  -19.2329 N   0  0  0  0  0  0  0  0  0  0  0  0
  -15.4674    6.8656  -17.3395 H   0  0  0  0  0  0  0  0  0  0  0  0
  -15.6669    8.7864  -18.3649 H   0  0  0  0  0  0  0  0  0  0  0  0
  -15.4705    9.2031  -20.4586 C   0  0  0  0  0  0  0  0  0  0  0  0
  -16.8382    8.9253  -21.0804 C   0  0  0  0  0  0  0  0  0  0  0  0
  -15.2938   10.7073  -20.2059 C   0  0  0  0  0  0  0  0  0  0  0  0
  -13.8421   11.0979  -19.9673 C   0  0  0  0  0  0  0  0  0  0  0  0
 15 16  2  0  0  0
 16 11  1  0  0  0
 11 12  2  0  0  0
 11 13  1  0  0  0
 13  1  1  0  0  0
 13 14  1  0  0  0
  1  2  1  0  0  0
  1 10  2  0  0  0
  2  3  2  0  0  0
  3  4  1  0  0  0
  3  8  1  0  0  0
  4 17  1  0  0  0
  4  5  2  0  0  0
 17 19  1  0  0  0
 17 18  1  0  0  0
 19 20  1  0  0  0
 19 25  2  0  0  0
 20 21  2  0  0  0
 21 22  1  0  0  0
 22 23  1  0  0  0
 22 24  2  0  0  0
 24 25  1  0  0  0
 25 26  1  0  0  0
  5  6  1  0  0  0
  6  7  2  0  0  0
  7  8  1  0  0  0
  8  9  2  0  0  0
  9 10  1  0  0  0
 10 27  1  0  0  0
 27 28  1  0  0  0
 28 29  1  0  0  0
 29 30  1  0  0  0
 30 31  1  0  0  0
 30 34  1  0  0  0
 31 32  2  0  0  0
 31 33  1  0  0  0
 33 36  1  0  0  0
 33 35  1  0  0  0
 36 37  1  0  0  0
 36 38  1  0  0  0
 38 39  1  0  0  0
M  END
> <minimizedAffinity>
-7.47978

$$$$
