CHEMBL3648080


 38 39  0  0  0  0  0  0  0  0999 V2000
  -17.0639   11.7055  -20.0430 C   0  0  0  0  0  0  0  0  0  0  0  0
  -17.2041   10.3226  -19.8379 C   0  0  0  0  0  0  0  0  0  0  0  0
  -16.1934    9.4123  -20.1658 C   0  0  0  0  0  0  0  0  0  0  0  0
  -15.0206    9.8813  -20.7233 C   0  0  0  0  0  0  0  0  0  0  0  0
  -14.8769   11.2409  -21.0192 C   0  0  0  0  0  0  0  0  0  0  0  0
  -15.8979   12.1443  -20.6863 C   0  0  0  0  0  0  0  0  0  0  0  0
  -13.6707    8.8039  -21.0068 S   0  0  0  0  0  0  0  0  0  0  0  0
  -14.0334    7.8486  -22.0219 O   0  0  0  0  0  0  0  0  0  0  0  0
  -13.2514    8.1214  -19.5427 N   0  0  0  0  0  0  0  0  0  0  0  0
  -12.0403    6.9505  -19.3526 S   0  0  0  0  0  0  0  0  0  0  0  0
  -12.2114    5.9530  -20.3909 O   0  0  0  0  0  0  0  0  0  0  0  0
  -10.7613    7.5825  -19.1164 O   0  0  0  0  0  0  0  0  0  0  0  0
  -12.5530    6.2046  -17.8101 C   0  0  0  0  0  0  0  0  0  0  0  0
  -12.4991    4.6803  -17.8515 C   0  0  0  0  0  0  0  0  0  0  0  0
  -14.1968    3.8198  -17.7261 Si  0  0  0  0  0  0  0  0  0  0  0  0
  -13.9324    1.9786  -17.9661 C   0  0  0  0  0  0  0  0  0  0  0  0
  -14.9665    4.1172  -16.0427 C   0  0  0  0  0  0  0  0  0  0  0  0
  -15.3366    4.4795  -19.0584 C   0  0  0  0  0  0  0  0  0  0  0  0
  -12.2984    9.8164  -21.4746 C   0  0  0  0  0  0  0  0  0  0  0  0
  -11.7456   10.5450  -20.2889 C   0  0  0  0  0  0  0  0  0  0  0  0
  -10.9868   11.5050  -20.3914 O   0  0  0  0  0  0  0  0  0  0  0  0
  -18.0676   12.6283  -19.6967 N   0  0  0  0  0  0  0  0  0  0  0  0
  -17.9252   13.1485  -18.8430 H   0  0  0  0  0  0  0  0  0  0  0  0
  -21.6355   12.5778  -19.3479 C   0  0  0  0  0  0  0  0  0  0  0  0
  -20.3217   12.5938  -19.0244 N   0  0  0  0  0  0  0  0  0  0  0  0
  -19.4263   12.6096  -20.0300 C   0  0  0  0  0  0  0  0  0  0  0  0
  -19.7769   12.6163  -21.3257 N   0  0  0  0  0  0  0  0  0  0  0  0
  -21.0825   12.6123  -21.6244 C   0  0  0  0  0  0  0  0  0  0  0  0
  -22.0629   12.6215  -20.6710 C   0  0  0  0  0  0  0  0  0  0  0  0
  -23.8765   12.6526  -21.1965 Br  0  0  0  0  0  0  0  0  0  0  0  0
  -22.6129   12.5889  -18.3340 N   0  0  0  0  0  0  0  0  0  0  0  0
  -22.4647   13.4546  -17.8187 H   0  0  0  0  0  0  0  0  0  0  0  0
  -22.7172   11.4408  -17.4198 C   0  0  0  0  0  0  0  0  0  0  0  0
  -22.1411   10.1778  -18.0663 C   0  0  0  0  0  0  0  0  0  0  0  0
  -24.6742   11.8992  -15.7583 C   0  0  0  0  0  0  0  0  0  0  0  0
  -24.2177   11.2231  -17.0524 C   0  0  0  0  0  0  0  0  0  0  0  0
  -24.4906    9.8174  -16.9608 O   0  0  0  0  0  0  0  0  0  0  0  0
  -24.2189    9.5236  -16.0750 H   0  0  0  0  0  0  0  0  0  0  0  0
 36 33  1  0  0  0
 36 37  1  0  0  0
 36 35  1  0  0  0
 37 38  1  0  0  0
 33 34  1  0  0  0
 33 31  1  0  0  0
 31 24  1  0  0  0
 31 32  1  0  0  0
 24 25  1  0  0  0
 24 29  2  0  0  0
 25 26  2  0  0  0
 26 22  1  0  0  0
 26 27  1  0  0  0
 22  1  1  0  0  0
 22 23  1  0  0  0
  1  2  1  0  0  0
  1  6  2  0  0  0
  2  3  2  0  0  0
  3  4  1  0  0  0
  4  7  1  0  0  0
  4  5  2  0  0  0
  7  8  2  0  0  0
  7 19  1  0  0  0
  7  9  2  0  0  0
 19 20  1  0  0  0
 20 21  2  0  0  0
  9 10  1  0  0  0
 10 11  2  0  0  0
 10 12  2  0  0  0
 10 13  1  0  0  0
 13 14  1  0  0  0
 14 15  1  0  0  0
 15 16  1  0  0  0
 15 17  1  0  0  0
 15 18  1  0  0  0
  5  6  1  0  0  0
 27 28  2  0  0  0
 28 29  1  0  0  0
 29 30  1  0  0  0
M  END
> <minimizedAffinity>
-4.40346

$$$$
