CHEMBL1956895


 32 36  0  0  0  0  0  0  0  0999 V2000
  -27.9703   -1.9341  -15.0600 N   0  0  0  0  0  0  0  0  0  0  0  0
  -27.0921   -1.7222  -14.0189 C   0  0  0  0  0  0  0  0  0  0  0  0
  -25.8170   -1.5266  -14.3554 N   0  0  0  0  0  0  0  0  0  0  0  0
  -24.8733   -1.3529  -13.3894 C   0  0  0  0  0  0  0  0  0  0  0  0
  -25.2988   -1.3615  -12.0453 C   0  0  0  0  0  0  0  0  0  0  0  0
  -24.6895   -1.3105  -10.7675 C   0  0  0  0  0  0  0  0  0  0  0  0
  -25.6879   -1.4510   -9.8248 C   0  0  0  0  0  0  0  0  0  0  0  0
  -26.8889   -1.5043  -10.4933 N   0  0  0  0  0  0  0  0  0  0  0  0
  -26.6564   -1.5239  -11.8443 C   0  0  0  0  0  0  0  0  0  0  0  0
  -27.5927   -1.7082  -12.7864 N   0  0  0  0  0  0  0  0  0  0  0  0
  -27.5881   -1.5368  -15.9078 H   0  0  0  0  0  0  0  0  0  0  0  0
  -28.9047   -1.6643  -14.7908 H   0  0  0  0  0  0  0  0  0  0  0  0
  -23.5337   -1.1663  -13.7640 N   0  0  0  0  0  0  0  0  0  0  0  0
  -23.1125   -1.9451  -14.2440 H   0  0  0  0  0  0  0  0  0  0  0  0
  -22.8313    0.0427  -13.8565 C   0  0  0  0  0  0  0  0  0  0  0  0
  -23.4860    1.2488  -13.5812 C   0  0  0  0  0  0  0  0  0  0  0  0
  -22.8516    2.4742  -13.7446 C   0  0  0  0  0  0  0  0  0  0  0  0
  -21.5099    2.5218  -14.1983 C   0  0  0  0  0  0  0  0  0  0  0  0
  -20.8699    1.3245  -14.4917 C   0  0  0  0  0  0  0  0  0  0  0  0
  -19.0884    1.3460  -15.1176 Br  0  0  0  0  0  0  0  0  0  0  0  0
  -21.5037    0.0912  -14.3348 C   0  0  0  0  0  0  0  0  0  0  0  0
  -28.1794   -1.7821   -9.8907 C   0  0  0  0  0  0  0  0  0  0  0  0
  -28.1242   -2.4692   -8.5467 C   0  0  0  0  0  0  0  0  0  0  0  0
  -28.0989   -3.8756   -8.5198 C   0  0  0  0  0  0  0  0  0  0  0  0
  -28.4072   -4.5692   -7.3555 C   0  0  0  0  0  0  0  0  0  0  0  0
  -28.8759   -3.8662   -6.2533 C   0  0  0  0  0  0  0  0  0  0  0  0
  -28.8066   -2.4675   -6.2353 C   0  0  0  0  0  0  0  0  0  0  0  0
  -29.2083   -1.7539   -5.1084 C   0  0  0  0  0  0  0  0  0  0  0  0
  -28.5460   -0.5908   -4.7646 C   0  0  0  0  0  0  0  0  0  0  0  0
  -27.8520    0.0761   -5.7579 C   0  0  0  0  0  0  0  0  0  0  0  0
  -27.8509   -0.4335   -7.0655 C   0  0  0  0  0  0  0  0  0  0  0  0
  -28.2584   -1.7650   -7.3193 C   0  0  0  0  0  0  0  0  0  0  0  0
  1  2  1  0  0  0
  1 11  1  0  0  0
  1 12  1  0  0  0
  2  3  1  0  0  0
  2 10  2  0  0  0
  3  4  2  0  0  0
  4 13  1  0  0  0
  4  5  1  0  0  0
 13 15  1  0  0  0
 13 14  1  0  0  0
 15 16  1  0  0  0
 15 21  2  0  0  0
 16 17  2  0  0  0
 17 18  1  0  0  0
 18 19  2  0  0  0
 19 20  1  0  0  0
 19 21  1  0  0  0
  5  6  1  0  0  0
  5  9  2  0  0  0
  6  7  2  0  0  0
  7  8  1  0  0  0
  8 22  1  0  0  0
  8  9  1  0  0  0
 22 23  1  0  0  0
 23 24  1  0  0  0
 23 32  2  0  0  0
 24 25  2  0  0  0
 25 26  1  0  0  0
 26 27  2  0  0  0
 27 28  1  0  0  0
 27 32  1  0  0  0
 28 29  2  0  0  0
 29 30  1  0  0  0
 30 31  2  0  0  0
 31 32  1  0  0  0
  9 10  1  0  0  0
M  END
> <minimizedAffinity>
-9.07249

$$$$
