CHEMBL523320


 31 34  0  0  0  0  0  0  0  0999 V2000
  -29.0063   -6.1484   -6.9304 N   0  0  0  0  0  0  0  0  0  0  0  0
  -29.2254   -5.0008   -6.2063 C   0  0  0  0  0  0  0  0  0  0  0  0
  -28.6834   -3.9911   -6.9714 C   0  0  0  0  0  0  0  0  0  0  0  0
  -28.1350   -4.5352   -8.0971 N   0  0  0  0  0  0  0  0  0  0  0  0
  -28.3807   -5.8373   -8.0906 N   0  0  0  0  0  0  0  0  0  0  0  0
  -30.1489  -11.6537   -5.7713 C   0  0  0  0  0  0  0  0  0  0  0  0
  -29.9152  -10.1954   -6.0564 C   0  0  0  0  0  0  0  0  0  0  0  0
  -28.7438   -9.5996   -5.5584 C   0  0  0  0  0  0  0  0  0  0  0  0
  -28.4435   -8.2594   -5.8205 C   0  0  0  0  0  0  0  0  0  0  0  0
  -29.3154   -7.4888   -6.5889 C   0  0  0  0  0  0  0  0  0  0  0  0
  -30.5012   -8.0663   -7.0661 C   0  0  0  0  0  0  0  0  0  0  0  0
  -30.8124   -9.4212   -6.8202 C   0  0  0  0  0  0  0  0  0  0  0  0
  -32.1030   -9.9469   -7.4184 C   0  0  0  0  0  0  0  0  0  0  0  0
  -31.9516  -10.8676   -8.4085 F   0  0  0  0  0  0  0  0  0  0  0  0
  -32.8968  -10.5397   -6.4827 F   0  0  0  0  0  0  0  0  0  0  0  0
  -32.8560   -8.9491   -7.9632 F   0  0  0  0  0  0  0  0  0  0  0  0
  -28.6795   -2.5724   -6.6392 C   0  0  0  0  0  0  0  0  0  0  0  0
  -29.3438   -2.1964   -5.4467 C   0  0  0  0  0  0  0  0  0  0  0  0
  -29.3333   -0.8825   -4.9848 C   0  0  0  0  0  0  0  0  0  0  0  0
  -28.6354    0.0793   -5.6935 C   0  0  0  0  0  0  0  0  0  0  0  0
  -27.9826   -0.2726   -6.8821 C   0  0  0  0  0  0  0  0  0  0  0  0
  -28.0150   -1.5837   -7.4083 C   0  0  0  0  0  0  0  0  0  0  0  0
  -27.3755   -1.7550   -8.6355 N   0  0  0  0  0  0  0  0  0  0  0  0
  -26.3726   -1.6075   -8.6423 H   0  0  0  0  0  0  0  0  0  0  0  0
  -28.0096   -1.5478   -9.9280 C   0  0  0  0  0  0  0  0  0  0  0  0
  -26.9933   -1.6045  -11.0428 C   0  0  0  0  0  0  0  0  0  0  0  0
  -27.3929   -1.7442  -12.3741 C   0  0  0  0  0  0  0  0  0  0  0  0
  -26.4260   -1.6886  -13.3650 C   0  0  0  0  0  0  0  0  0  0  0  0
  -25.1094   -1.5105  -13.1225 N   0  0  0  0  0  0  0  0  0  0  0  0
  -24.7432   -1.3844  -11.8296 C   0  0  0  0  0  0  0  0  0  0  0  0
  -25.6336   -1.4259  -10.7703 C   0  0  0  0  0  0  0  0  0  0  0  0
  6  7  1  0  0  0
  7  8  1  0  0  0
  7 12  2  0  0  0
  8  9  2  0  0  0
  9 10  1  0  0  0
 10  1  1  0  0  0
 10 11  2  0  0  0
  1  2  1  0  0  0
  1  5  1  0  0  0
  2  3  2  0  0  0
  3 17  1  0  0  0
  3  4  1  0  0  0
 17 18  1  0  0  0
 17 22  2  0  0  0
 18 19  2  0  0  0
 19 20  1  0  0  0
 20 21  2  0  0  0
 21 22  1  0  0  0
 22 23  1  0  0  0
 23 25  1  0  0  0
 23 24  1  0  0  0
 25 26  1  0  0  0
 26 27  1  0  0  0
 26 31  2  0  0  0
 27 28  2  0  0  0
 28 29  1  0  0  0
 29 30  2  0  0  0
 30 31  1  0  0  0
  4  5  2  0  0  0
 11 12  1  0  0  0
 12 13  1  0  0  0
 13 14  1  0  0  0
 13 15  1  0  0  0
 13 16  1  0  0  0
M  END
> <minimizedAffinity>
-9.03266

$$$$
