CHEMBL44577


 38 43  0  0  0  0  0  0  0  0999 V2000
  -29.2203   -3.8532   -6.8273 N   0  0  0  0  0  0  0  0  0  0  0  0
  -28.6909   -3.7564   -8.0589 N   0  0  0  0  0  0  0  0  0  0  0  0
  -28.1996   -2.5102   -8.1256 C   0  0  0  0  0  0  0  0  0  0  0  0
  -28.4050   -1.8116   -6.8925 C   0  0  0  0  0  0  0  0  0  0  0  0
  -28.2104   -0.5340   -6.3521 C   0  0  0  0  0  0  0  0  0  0  0  0
  -27.7376    0.5697   -7.0519 N   0  0  0  0  0  0  0  0  0  0  0  0
  -28.5392   -0.3160   -5.0628 N   0  0  0  0  0  0  0  0  0  0  0  0
  -29.0796   -1.3235   -4.3553 C   0  0  0  0  0  0  0  0  0  0  0  0
  -29.3831   -2.5596   -4.7813 N   0  0  0  0  0  0  0  0  0  0  0  0
  -29.0150   -2.7385   -6.0627 C   0  0  0  0  0  0  0  0  0  0  0  0
  -28.0074    0.5927   -8.0276 H   0  0  0  0  0  0  0  0  0  0  0  0
  -27.9273    1.4200   -6.5331 H   0  0  0  0  0  0  0  0  0  0  0  0
  -28.5665   -7.6620   -6.5004 C   0  0  0  0  0  0  0  0  0  0  0  0
  -28.9640   -6.9238   -7.7923 C   0  0  0  0  0  0  0  0  0  0  0  0
  -30.1608   -5.9886   -7.6546 C   0  0  0  0  0  0  0  0  0  0  0  0
  -30.0491   -5.0045   -6.4804 C   0  0  0  0  0  0  0  0  0  0  0  0
  -29.6055   -5.6785   -5.1780 C   0  0  0  0  0  0  0  0  0  0  0  0
  -28.4388   -6.6563   -5.3364 C   0  0  0  0  0  0  0  0  0  0  0  0
  -28.9295  -12.3090   -8.8138 C   0  0  0  0  0  0  0  0  0  0  0  0
  -29.2938  -11.5193   -7.6383 N   0  0  0  0  0  0  0  0  0  0  0  0
  -28.0825  -11.0126   -6.9711 C   0  0  0  0  0  0  0  0  0  0  0  0
  -28.3879  -10.0454   -5.8049 C   0  0  0  0  0  0  0  0  0  0  0  0
  -29.2551   -8.9163   -6.1655 N   0  0  0  0  0  0  0  0  0  0  0  0
  -30.4413   -9.3973   -6.8689 C   0  0  0  0  0  0  0  0  0  0  0  0
  -30.1970  -10.4143   -8.0096 C   0  0  0  0  0  0  0  0  0  0  0  0
  -27.6147   -2.0346   -9.3785 C   0  0  0  0  0  0  0  0  0  0  0  0
  -26.2379   -1.7739   -9.4476 C   0  0  0  0  0  0  0  0  0  0  0  0
  -25.6438   -1.4071  -10.6558 C   0  0  0  0  0  0  0  0  0  0  0  0
  -26.4108   -1.3652  -11.8204 C   0  0  0  0  0  0  0  0  0  0  0  0
  -27.7910   -1.5350  -11.7418 C   0  0  0  0  0  0  0  0  0  0  0  0
  -28.3949   -1.8398  -10.5213 C   0  0  0  0  0  0  0  0  0  0  0  0
  -25.9105   -1.1145  -13.0765 O   0  0  0  0  0  0  0  0  0  0  0  0
  -24.6650   -0.5453  -13.2166 C   0  0  0  0  0  0  0  0  0  0  0  0
  -24.3626    0.7901  -12.9332 C   0  0  0  0  0  0  0  0  0  0  0  0
  -23.0778    1.2801  -13.1706 C   0  0  0  0  0  0  0  0  0  0  0  0
  -22.0784    0.4216  -13.6258 C   0  0  0  0  0  0  0  0  0  0  0  0
  -22.3585   -0.9288  -13.8315 C   0  0  0  0  0  0  0  0  0  0  0  0
  -23.6510   -1.4114  -13.6265 C   0  0  0  0  0  0  0  0  0  0  0  0
 19 20  1  0  0  0
 20 21  1  0  0  0
 20 25  1  0  0  0
 21 22  1  0  0  0
 22 23  1  0  0  0
 23 24  1  0  0  0
 13 14  1  0  0  0
 13 18  1  0  0  0
 13 23  1  0  0  0
 14 15  1  0  0  0
 15 16  1  0  0  0
 16 17  1  0  0  0
 16  1  1  0  0  0
  1  2  1  0  0  0
  1 10  1  0  0  0
  2  3  2  0  0  0
  3 26  1  0  0  0
  3  4  1  0  0  0
 26 27  1  0  0  0
 26 31  2  0  0  0
 27 28  2  0  0  0
 28 29  1  0  0  0
 29 32  1  0  0  0
 29 30  2  0  0  0
 32 33  1  0  0  0
 33 34  1  0  0  0
 33 38  2  0  0  0
 34 35  2  0  0  0
 35 36  1  0  0  0
 36 37  2  0  0  0
 37 38  1  0  0  0
 30 31  1  0  0  0
  4  5  1  0  0  0
  4 10  2  0  0  0
  5  6  1  0  0  0
  5  7  2  0  0  0
  6 11  1  0  0  0
  6 12  1  0  0  0
  7  8  1  0  0  0
  8  9  2  0  0  0
  9 10  1  0  0  0
 17 18  1  0  0  0
 24 25  1  0  0  0
M  END
> <minimizedAffinity>
-9.21658

$$$$
