CHEMBL2088094


 27 29  0  0  0  0  0  0  0  0999 V2000
  -28.7543   -3.2668   -6.9201 C   0  0  0  0  0  0  0  0  0  0  0  0
  -28.2260   -3.4675   -8.1577 N   0  0  0  0  0  0  0  0  0  0  0  0
  -27.5913   -2.4441   -8.7526 C   0  0  0  0  0  0  0  0  0  0  0  0
  -27.4219   -1.2472   -8.1859 N   0  0  0  0  0  0  0  0  0  0  0  0
  -27.9176   -1.0840   -6.9476 C   0  0  0  0  0  0  0  0  0  0  0  0
  -28.5800   -2.0636   -6.2478 C   0  0  0  0  0  0  0  0  0  0  0  0
  -29.0093   -1.7050   -4.4396 Br  0  0  0  0  0  0  0  0  0  0  0  0
  -29.4203   -4.3836   -6.3691 N   0  0  0  0  0  0  0  0  0  0  0  0
  -30.3065   -4.0455   -6.0067 H   0  0  0  0  0  0  0  0  0  0  0  0
  -28.0981   -7.4434   -5.2122 C   0  0  0  0  0  0  0  0  0  0  0  0
  -28.7873   -6.7219   -6.1661 C   0  0  0  0  0  0  0  0  0  0  0  0
  -28.8595   -5.3979   -5.6671 C   0  0  0  0  0  0  0  0  0  0  0  0
  -28.3154   -5.3194   -4.4505 N   0  0  0  0  0  0  0  0  0  0  0  0
  -27.8369   -6.5476   -4.2133 N   0  0  0  0  0  0  0  0  0  0  0  0
  -27.3386   -6.7054   -3.3434 H   0  0  0  0  0  0  0  0  0  0  0  0
  -27.6750   -8.8691   -5.1326 C   0  0  0  0  0  0  0  0  0  0  0  0
  -25.3747   -9.1144   -4.1376 C   0  0  0  0  0  0  0  0  0  0  0  0
  -26.8733   -9.1775   -3.8689 C   0  0  0  0  0  0  0  0  0  0  0  0
  -27.1092   -2.6647  -10.0276 N   0  0  0  0  0  0  0  0  0  0  0  0
  -26.1977   -3.0988   -9.9813 H   0  0  0  0  0  0  0  0  0  0  0  0
  -27.2590   -1.5884  -10.9958 C   0  0  0  0  0  0  0  0  0  0  0  0
  -26.1279   -1.3990  -11.9454 C   0  0  0  0  0  0  0  0  0  0  0  0
  -24.8646   -0.8607  -11.8655 C   0  0  0  0  0  0  0  0  0  0  0  0
  -24.3351   -1.0096  -13.1676 C   0  0  0  0  0  0  0  0  0  0  0  0
  -23.0039   -0.6115  -13.6764 C   0  0  0  0  0  0  0  0  0  0  0  0
  -25.2198   -1.5936  -13.9878 N   0  0  0  0  0  0  0  0  0  0  0  0
  -26.3436   -1.8324  -13.2185 O   0  0  0  0  0  0  0  0  0  0  0  0
 17 18  1  0  0  0
 18 16  1  0  0  0
 16 10  1  0  0  0
 10 11  2  0  0  0
 10 14  1  0  0  0
 11 12  1  0  0  0
 12  8  1  0  0  0
 12 13  2  0  0  0
  8  1  1  0  0  0
  8  9  1  0  0  0
  1  2  1  0  0  0
  1  6  2  0  0  0
  2  3  2  0  0  0
  3 19  1  0  0  0
  3  4  1  0  0  0
 19 21  1  0  0  0
 19 20  1  0  0  0
 21 22  1  0  0  0
 22 23  2  0  0  0
 22 27  1  0  0  0
 23 24  1  0  0  0
 24 25  1  0  0  0
 24 26  2  0  0  0
 26 27  1  0  0  0
  4  5  2  0  0  0
  5  6  1  0  0  0
  6  7  1  0  0  0
 13 14  1  0  0  0
 14 15  1  0  0  0
M  END
> <minimizedAffinity>
-7.99906

$$$$
