CHEMBL3309402


 51 57  0  0  0  0  0  0  0  0999 V2000
  -12.5547    0.4754  -15.8446 C   0  0  0  0  0  0  0  0  0  0  0  0
  -12.1934   -0.1387  -14.6495 C   0  0  0  0  0  0  0  0  0  0  0  0
  -12.0935   -1.5302  -14.5712 C   0  0  0  0  0  0  0  0  0  0  0  0
  -12.4342   -2.3585  -15.6433 C   0  0  0  0  0  0  0  0  0  0  0  0
  -12.8555   -1.7504  -16.8313 C   0  0  0  0  0  0  0  0  0  0  0  0
  -12.8960   -0.3482  -16.9239 C   0  0  0  0  0  0  0  0  0  0  0  0
  -13.2509    0.2019  -18.0954 F   0  0  0  0  0  0  0  0  0  0  0  0
  -12.3812   -3.7724  -15.5526 N   0  0  0  0  0  0  0  0  0  0  0  0
  -13.4582   -4.5870  -15.2395 C   0  0  0  0  0  0  0  0  0  0  0  0
  -14.5885   -4.2384  -14.9297 O   0  0  0  0  0  0  0  0  0  0  0  0
  -11.5071   -4.2371  -15.7804 H   0  0  0  0  0  0  0  0  0  0  0  0
  -13.1927   -6.0844  -15.2858 C   0  0  0  0  0  0  0  0  0  0  0  0
  -12.9366   -6.5999  -16.4525 N   0  0  0  0  0  0  0  0  0  0  0  0
  -12.8399   -7.9794  -16.5734 N   0  0  0  0  0  0  0  0  0  0  0  0
  -12.9643   -8.8527  -15.4868 C   0  0  0  0  0  0  0  0  0  0  0  0
  -12.8899  -10.0847  -15.5162 O   0  0  0  0  0  0  0  0  0  0  0  0
  -13.1475   -8.2449  -14.1587 C   0  0  0  0  0  0  0  0  0  0  0  0
  -13.1707   -9.0545  -13.0146 C   0  0  0  0  0  0  0  0  0  0  0  0
  -13.3320   -8.4907  -11.7543 C   0  0  0  0  0  0  0  0  0  0  0  0
  -13.4959   -7.1170  -11.6319 C   0  0  0  0  0  0  0  0  0  0  0  0
  -13.4737   -6.3059  -12.7696 C   0  0  0  0  0  0  0  0  0  0  0  0
  -13.2900   -6.8690  -14.0412 C   0  0  0  0  0  0  0  0  0  0  0  0
  -12.6457   -8.4410  -17.9274 C   0  0  0  0  0  0  0  0  0  0  0  0
  -13.6956   -8.9619  -18.7058 C   0  0  0  0  0  0  0  0  0  0  0  0
  -13.4747   -9.4528  -19.9977 C   0  0  0  0  0  0  0  0  0  0  0  0
  -12.1963   -9.4250  -20.5282 C   0  0  0  0  0  0  0  0  0  0  0  0
  -11.9782   -9.9079  -21.7580 F   0  0  0  0  0  0  0  0  0  0  0  0
  -11.1400   -8.8990  -19.7991 C   0  0  0  0  0  0  0  0  0  0  0  0
  -11.3665   -8.3969  -18.5125 C   0  0  0  0  0  0  0  0  0  0  0  0
  -12.5718    1.8432  -16.0535 O   0  0  0  0  0  0  0  0  0  0  0  0
  -16.3776    1.0156  -14.1527 C   0  0  0  0  0  0  0  0  0  0  0  0
  -15.1303    1.3880  -14.6374 C   0  0  0  0  0  0  0  0  0  0  0  0
  -14.9886    2.2695  -15.7263 C   0  0  0  0  0  0  0  0  0  0  0  0
  -13.7567    2.4833  -16.3857 C   0  0  0  0  0  0  0  0  0  0  0  0
  -13.6742    3.4205  -17.4079 C   0  0  0  0  0  0  0  0  0  0  0  0
  -14.8357    4.0680  -17.7809 C   0  0  0  0  0  0  0  0  0  0  0  0
  -16.0441    3.8307  -17.2226 N   0  0  0  0  0  0  0  0  0  0  0  0
  -16.1249    2.9407  -16.2166 C   0  0  0  0  0  0  0  0  0  0  0  0
  -17.3546    2.6733  -15.6221 C   0  0  0  0  0  0  0  0  0  0  0  0
  -17.4963    1.7389  -14.5828 C   0  0  0  0  0  0  0  0  0  0  0  0
  -15.5624   -1.0527  -13.2327 C   0  0  0  0  0  0  0  0  0  0  0  0
  -16.5438   -0.0208  -13.2790 O   0  0  0  0  0  0  0  0  0  0  0  0
  -18.7705    1.6346  -14.0708 O   0  0  0  0  0  0  0  0  0  0  0  0
  -19.8100    1.5671  -15.0549 C   0  0  0  0  0  0  0  0  0  0  0  0
  -21.1881    1.5979  -14.4082 C   0  0  0  0  0  0  0  0  0  0  0  0
  -21.8193    0.2096  -14.2870 C   0  0  0  0  0  0  0  0  0  0  0  0
  -23.0017    0.2208  -13.4047 N   0  0  0  0  0  0  0  0  0  0  0  0
  -22.7231   -0.4804  -12.1399 C   0  0  0  0  0  0  0  0  0  0  0  0
  -23.0979   -1.9242  -12.4053 C   0  0  0  0  0  0  0  0  0  0  0  0
  -24.3372   -1.7945  -13.2641 C   0  0  0  0  0  0  0  0  0  0  0  0
  -24.1666   -0.4674  -13.9927 C   0  0  0  0  0  0  0  0  0  0  0  0
 41 42  1  0  0  0
 42 31  1  0  0  0
 31 32  1  0  0  0
 31 40  2  0  0  0
 32 33  2  0  0  0
 33 34  1  0  0  0
 33 38  1  0  0  0
 34 30  1  0  0  0
 34 35  2  0  0  0
 30  1  1  0  0  0
  1  2  1  0  0  0
  1  6  2  0  0  0
  2  3  2  0  0  0
  3  4  1  0  0  0
  4  8  1  0  0  0
  4  5  2  0  0  0
  8  9  1  0  0  0
  8 11  1  0  0  0
  9 10  2  0  0  0
  9 12  1  0  0  0
 12 13  2  0  0  0
 12 22  1  0  0  0
 13 14  1  0  0  0
 14 23  1  0  0  0
 14 15  1  0  0  0
 23 24  1  0  0  0
 23 29  2  0  0  0
 24 25  2  0  0  0
 25 26  1  0  0  0
 26 27  1  0  0  0
 26 28  2  0  0  0
 28 29  1  0  0  0
 15 16  2  0  0  0
 15 17  1  0  0  0
 17 18  1  0  0  0
 17 22  2  0  0  0
 18 19  2  0  0  0
 19 20  1  0  0  0
 20 21  2  0  0  0
 21 22  1  0  0  0
  5  6  1  0  0  0
  6  7  1  0  0  0
 35 36  1  0  0  0
 36 37  2  0  0  0
 37 38  1  0  0  0
 38 39  2  0  0  0
 39 40  1  0  0  0
 40 43  1  0  0  0
 43 44  1  0  0  0
 44 45  1  0  0  0
 45 46  1  0  0  0
 46 47  1  0  0  0
 47 48  1  0  0  0
 47 51  1  0  0  0
 48 49  1  0  0  0
 49 50  1  0  0  0
 50 51  1  0  0  0
M  END
> <minimizedAffinity>
-8.70383

$$$$
