CHEMBL4465496


 36 39  0  0  0  0  0  0  0  0999 V2000
  -11.7741   -0.6713  -13.2985 O   0  0  0  0  0  0  0  0  0  0  0  0
  -12.7063   -0.5320  -14.0862 C   0  0  0  0  0  0  0  0  0  0  0  0
  -13.9661   -1.1353  -13.9677 N   0  0  0  0  0  0  0  0  0  0  0  0
  -14.6628   -0.9027  -14.6647 H   0  0  0  0  0  0  0  0  0  0  0  0
  -14.3813   -2.0437  -12.9553 C   0  0  0  0  0  0  0  0  0  0  0  0
  -15.5070   -1.8149  -12.1626 C   0  0  0  0  0  0  0  0  0  0  0  0
  -15.8628   -2.7052  -11.1559 C   0  0  0  0  0  0  0  0  0  0  0  0
  -15.1211   -3.8628  -10.9553 C   0  0  0  0  0  0  0  0  0  0  0  0
  -14.0288   -4.1675  -11.7686 C   0  0  0  0  0  0  0  0  0  0  0  0
  -13.6367   -3.2283  -12.7443 C   0  0  0  0  0  0  0  0  0  0  0  0
  -13.3357   -5.3999  -11.6495 N   0  0  0  0  0  0  0  0  0  0  0  0
  -13.7689   -6.6210  -12.1617 C   0  0  0  0  0  0  0  0  0  0  0  0
  -14.8194   -6.8303  -12.7630 O   0  0  0  0  0  0  0  0  0  0  0  0
  -12.3928   -5.4037  -11.2704 H   0  0  0  0  0  0  0  0  0  0  0  0
  -12.8223   -7.7680  -11.9943 C   0  0  0  0  0  0  0  0  0  0  0  0
  -13.1594   -9.0024  -12.5480 C   0  0  0  0  0  0  0  0  0  0  0  0
  -12.2677  -10.0600  -12.4129 C   0  0  0  0  0  0  0  0  0  0  0  0
  -11.0728   -9.8537  -11.7341 C   0  0  0  0  0  0  0  0  0  0  0  0
  -10.8237   -8.5914  -11.2113 C   0  0  0  0  0  0  0  0  0  0  0  0
  -11.6652   -7.5326  -11.3220 N   0  0  0  0  0  0  0  0  0  0  0  0
  -12.6007    0.4101  -15.2876 C   0  0  0  0  0  0  0  0  0  0  0  0
  -14.1654    0.4786  -16.2304 S   0  0  0  0  0  0  0  0  0  0  0  0
  -14.8013    2.0848  -15.8421 C   0  0  0  0  0  0  0  0  0  0  0  0
  -13.8489    3.4646  -16.0337 S   0  0  0  0  0  0  0  0  0  0  0  0
  -16.1152    2.1082  -15.3572 N   0  0  0  0  0  0  0  0  0  0  0  0
  -16.7637    1.0048  -14.6031 C   0  0  0  0  0  0  0  0  0  0  0  0
  -18.1722    0.6848  -15.1422 C   0  0  0  0  0  0  0  0  0  0  0  0
  -18.9584    1.9158  -15.2062 N   0  0  0  0  0  0  0  0  0  0  0  0
  -18.3665    3.0296  -15.9398 C   0  0  0  0  0  0  0  0  0  0  0  0
  -16.9587    3.3282  -15.3822 C   0  0  0  0  0  0  0  0  0  0  0  0
  -20.2545    1.9617  -14.7677 C   0  0  0  0  0  0  0  0  0  0  0  0
  -20.9061    0.8084  -14.5440 N   0  0  0  0  0  0  0  0  0  0  0  0
  -22.1586    0.8750  -14.0542 C   0  0  0  0  0  0  0  0  0  0  0  0
  -22.8012    2.0517  -13.7752 C   0  0  0  0  0  0  0  0  0  0  0  0
  -22.0718    3.1803  -14.0383 C   0  0  0  0  0  0  0  0  0  0  0  0
  -20.8169    3.1584  -14.5260 N   0  0  0  0  0  0  0  0  0  0  0  0
  1  2  2  0  0  0
  2 21  1  0  0  0
  2  3  1  0  0  0
 21 22  1  0  0  0
 22 23  1  0  0  0
 23 24  2  0  0  0
 23 25  1  0  0  0
 25 26  1  0  0  0
 25 30  1  0  0  0
 26 27  1  0  0  0
 27 28  1  0  0  0
 28 31  1  0  0  0
 28 29  1  0  0  0
 31 32  1  0  0  0
 31 36  2  0  0  0
 32 33  2  0  0  0
 33 34  1  0  0  0
 34 35  2  0  0  0
 35 36  1  0  0  0
 29 30  1  0  0  0
  3  5  1  0  0  0
  3  4  1  0  0  0
  5  6  1  0  0  0
  5 10  2  0  0  0
  6  7  2  0  0  0
  7  8  1  0  0  0
  8  9  2  0  0  0
  9 11  1  0  0  0
  9 10  1  0  0  0
 11 12  1  0  0  0
 11 14  1  0  0  0
 12 13  2  0  0  0
 12 15  1  0  0  0
 15 16  1  0  0  0
 15 20  2  0  0  0
 16 17  2  0  0  0
 17 18  1  0  0  0
 18 19  2  0  0  0
 19 20  1  0  0  0
M  END
> <minimizedAffinity>
-8.11158

$$$$
