CHEMBL1967252


 17 19  0  0  0  0  0  0  0  0999 V2000
  -17.3882    0.7594  -15.1449 C   0  0  0  0  0  0  0  0  0  0  0  0
  -18.3875    1.8535  -15.0919 C   0  0  0  0  0  0  0  0  0  0  0  0
  -18.0552    3.1013  -15.4494 N   0  0  0  0  0  0  0  0  0  0  0  0
  -19.1885    3.7990  -15.2691 N   0  0  0  0  0  0  0  0  0  0  0  0
  -20.2396    3.0540  -14.8054 C   0  0  0  0  0  0  0  0  0  0  0  0
  -21.5542    3.3928  -14.4877 C   0  0  0  0  0  0  0  0  0  0  0  0
  -22.3819    2.3597  -14.0179 C   0  0  0  0  0  0  0  0  0  0  0  0
  -21.9389    1.0295  -13.8782 C   0  0  0  0  0  0  0  0  0  0  0  0
  -20.6002    0.7440  -14.2225 C   0  0  0  0  0  0  0  0  0  0  0  0
  -19.7448    1.7652  -14.6801 C   0  0  0  0  0  0  0  0  0  0  0  0
  -19.1801    4.7897  -15.4815 H   0  0  0  0  0  0  0  0  0  0  0  0
  -22.8422   -0.0375  -13.3878 C   0  0  0  0  0  0  0  0  0  0  0  0
  -22.7129   -0.6021  -12.1090 C   0  0  0  0  0  0  0  0  0  0  0  0
  -23.5772   -1.6099  -11.6805 C   0  0  0  0  0  0  0  0  0  0  0  0
  -24.5721   -2.0319  -12.5421 C   0  0  0  0  0  0  0  0  0  0  0  0
  -24.7465   -1.5273  -13.7786 N   0  0  0  0  0  0  0  0  0  0  0  0
  -23.8806   -0.5567  -14.1669 C   0  0  0  0  0  0  0  0  0  0  0  0
  1  2  1  0  0  0
  2  3  2  0  0  0
  2 10  1  0  0  0
  3  4  1  0  0  0
  4  5  1  0  0  0
  4 11  1  0  0  0
  5  6  1  0  0  0
  5 10  2  0  0  0
  6  7  2  0  0  0
  7  8  1  0  0  0
  8 12  1  0  0  0
  8  9  2  0  0  0
 12 13  1  0  0  0
 12 17  2  0  0  0
 13 14  2  0  0  0
 14 15  1  0  0  0
 15 16  2  0  0  0
 16 17  1  0  0  0
  9 10  1  0  0  0
M  END
> <minimizedAffinity>
-8.85375

$$$$
