CHEMBL303195


 31 34  0  0  0  0  0  0  0  0999 V2000
  -29.6408   -6.1228   -6.9413 C   0  0  0  0  0  0  0  0  0  0  0  0
  -29.9262   -4.9079   -7.5768 C   0  0  0  0  0  0  0  0  0  0  0  0
  -29.9168   -3.7091   -6.8610 C   0  0  0  0  0  0  0  0  0  0  0  0
  -29.7151   -3.7215   -5.4821 C   0  0  0  0  0  0  0  0  0  0  0  0
  -29.3330   -4.9084   -4.8601 C   0  0  0  0  0  0  0  0  0  0  0  0
  -29.2566   -6.0929   -5.5981 C   0  0  0  0  0  0  0  0  0  0  0  0
  -29.1299   -9.0547   -9.0295 N   0  0  0  0  0  0  0  0  0  0  0  0
  -28.7729   -7.8189   -8.5479 C   0  0  0  0  0  0  0  0  0  0  0  0
  -29.7464   -7.3904   -7.6601 C   0  0  0  0  0  0  0  0  0  0  0  0
  -30.7737   -8.3969   -7.6537 C   0  0  0  0  0  0  0  0  0  0  0  0
  -32.0235   -8.6032   -7.0312 C   0  0  0  0  0  0  0  0  0  0  0  0
  -32.6540   -7.7095   -6.1741 N   0  0  0  0  0  0  0  0  0  0  0  0
  -32.6997   -9.7443   -7.2732 N   0  0  0  0  0  0  0  0  0  0  0  0
  -32.1636  -10.6376   -8.1176 C   0  0  0  0  0  0  0  0  0  0  0  0
  -31.0083  -10.5488   -8.7887 N   0  0  0  0  0  0  0  0  0  0  0  0
  -30.3519   -9.4084   -8.5138 C   0  0  0  0  0  0  0  0  0  0  0  0
  -32.5095   -6.7387   -6.4216 H   0  0  0  0  0  0  0  0  0  0  0  0
  -33.6185   -7.9846   -6.0323 H   0  0  0  0  0  0  0  0  0  0  0  0
  -28.9445  -10.1963  -11.2227 C   0  0  0  0  0  0  0  0  0  0  0  0
  -28.2725   -9.8682   -9.8891 C   0  0  0  0  0  0  0  0  0  0  0  0
  -26.8785   -9.2739  -10.0824 C   0  0  0  0  0  0  0  0  0  0  0  0
  -29.8274   -2.6239   -4.6613 O   0  0  0  0  0  0  0  0  0  0  0  0
  -29.4775   -1.3717   -5.1332 C   0  0  0  0  0  0  0  0  0  0  0  0
  -30.4049   -0.3588   -5.4113 C   0  0  0  0  0  0  0  0  0  0  0  0
  -29.9802    0.8446   -5.9714 C   0  0  0  0  0  0  0  0  0  0  0  0
  -28.6244    1.0586   -6.2037 C   0  0  0  0  0  0  0  0  0  0  0  0
  -27.6909    0.0829   -5.8455 C   0  0  0  0  0  0  0  0  0  0  0  0
  -28.0999   -1.1191   -5.2602 C   0  0  0  0  0  0  0  0  0  0  0  0
  -27.1497   -2.1285   -5.0137 N   0  0  0  0  0  0  0  0  0  0  0  0
  -26.2444   -1.7688   -4.7304 H   0  0  0  0  0  0  0  0  0  0  0  0
  -27.5108   -2.8283   -4.3681 H   0  0  0  0  0  0  0  0  0  0  0  0
 19 20  1  0  0  0
 20 21  1  0  0  0
 20  7  1  0  0  0
  7  8  1  0  0  0
  7 16  1  0  0  0
  8  9  2  0  0  0
  9  1  1  0  0  0
  9 10  1  0  0  0
  1  2  1  0  0  0
  1  6  2  0  0  0
  2  3  2  0  0  0
  3  4  1  0  0  0
  4 22  1  0  0  0
  4  5  2  0  0  0
 22 23  1  0  0  0
 23 24  1  0  0  0
 23 28  2  0  0  0
 24 25  2  0  0  0
 25 26  1  0  0  0
 26 27  2  0  0  0
 27 28  1  0  0  0
 28 29  1  0  0  0
 29 30  1  0  0  0
 29 31  1  0  0  0
  5  6  1  0  0  0
 10 11  1  0  0  0
 10 16  2  0  0  0
 11 12  1  0  0  0
 11 13  2  0  0  0
 12 17  1  0  0  0
 12 18  1  0  0  0
 13 14  1  0  0  0
 14 15  2  0  0  0
 15 16  1  0  0  0
M  END
> <minimizedAffinity>
-9.18459

$$$$
