CHEMBL570869


 44 48  0  0  0  0  0  0  0  0999 V2000
  -22.2180   -0.3865  -14.2840 O   0  0  0  0  0  0  0  0  0  0  0  0
  -18.3323    2.0217  -15.1367 C   0  0  0  0  0  0  0  0  0  0  0  0
  -19.0918    3.1322  -14.8148 C   0  0  0  0  0  0  0  0  0  0  0  0
  -20.4123    2.8094  -14.4759 C   0  0  0  0  0  0  0  0  0  0  0  0
  -21.2701    3.7355  -13.9943 N   0  0  0  0  0  0  0  0  0  0  0  0
  -22.4999    3.2957  -13.7548 C   0  0  0  0  0  0  0  0  0  0  0  0
  -22.9157    1.9888  -13.9406 C   0  0  0  0  0  0  0  0  0  0  0  0
  -22.0051    0.9800  -14.2893 C   0  0  0  0  0  0  0  0  0  0  0  0
  -20.7153    1.4558  -14.6378 C   0  0  0  0  0  0  0  0  0  0  0  0
  -19.3180    0.6300  -15.2772 S   0  0  0  0  0  0  0  0  0  0  0  0
  -16.8874    2.0258  -15.3304 C   0  0  0  0  0  0  0  0  0  0  0  0
  -16.2510    2.8004  -16.0431 O   0  0  0  0  0  0  0  0  0  0  0  0
  -14.9072   -0.5497  -13.6868 N   0  0  0  0  0  0  0  0  0  0  0  0
  -15.6049    0.0227  -12.6632 C   0  0  0  0  0  0  0  0  0  0  0  0
  -16.4586    0.9060  -13.1159 N   0  0  0  0  0  0  0  0  0  0  0  0
  -16.2542    0.9813  -14.4878 C   0  0  0  0  0  0  0  0  0  0  0  0
  -15.3094    0.0414  -14.8595 C   0  0  0  0  0  0  0  0  0  0  0  0
  -14.0037   -1.6785  -13.5553 C   0  0  0  0  0  0  0  0  0  0  0  0
  -15.3263   -3.6175  -12.8952 O   0  0  0  0  0  0  0  0  0  0  0  0
  -14.4886   -2.7706  -12.6310 C   0  0  0  0  0  0  0  0  0  0  0  0
  -13.8570   -2.7530  -11.4277 O   0  0  0  0  0  0  0  0  0  0  0  0
  -13.1935   -2.0466  -11.3035 H   0  0  0  0  0  0  0  0  0  0  0  0
  -23.2257   -1.0395  -13.6120 C   0  0  0  0  0  0  0  0  0  0  0  0
  -23.1439   -1.6700  -12.3800 C   0  0  0  0  0  0  0  0  0  0  0  0
  -24.3035   -2.0304  -11.6783 C   0  0  0  0  0  0  0  0  0  0  0  0
  -25.5653   -1.8972  -12.2519 C   0  0  0  0  0  0  0  0  0  0  0  0
  -25.6225   -1.5540  -13.6043 C   0  0  0  0  0  0  0  0  0  0  0  0
  -24.4617   -1.1180  -14.2633 C   0  0  0  0  0  0  0  0  0  0  0  0
  -24.5584   -0.7672  -15.5557 F   0  0  0  0  0  0  0  0  0  0  0  0
  -26.7726   -2.0741  -11.5305 N   0  0  0  0  0  0  0  0  0  0  0  0
  -26.9727   -1.8612  -10.1765 C   0  0  0  0  0  0  0  0  0  0  0  0
  -26.0877   -1.5367   -9.3804 O   0  0  0  0  0  0  0  0  0  0  0  0
  -27.6062   -2.2816  -12.0866 H   0  0  0  0  0  0  0  0  0  0  0  0
  -28.3863   -1.9934   -9.6244 C   0  0  0  0  0  0  0  0  0  0  0  0
  -28.5747   -2.6142   -8.2705 C   0  0  0  0  0  0  0  0  0  0  0  0
  -29.0288   -3.7506   -8.1491 O   0  0  0  0  0  0  0  0  0  0  0  0
  -28.2292   -1.7926   -7.2019 N   0  0  0  0  0  0  0  0  0  0  0  0
  -28.2573   -0.7918   -7.3557 H   0  0  0  0  0  0  0  0  0  0  0  0
  -28.4195   -2.2441   -5.8762 C   0  0  0  0  0  0  0  0  0  0  0  0
  -27.5520   -3.1852   -5.3122 C   0  0  0  0  0  0  0  0  0  0  0  0
  -27.8084   -3.7122   -4.0474 C   0  0  0  0  0  0  0  0  0  0  0  0
  -28.9515   -3.3227   -3.3553 C   0  0  0  0  0  0  0  0  0  0  0  0
  -29.8079   -2.3673   -3.9054 C   0  0  0  0  0  0  0  0  0  0  0  0
  -29.5206   -1.7924   -5.1473 C   0  0  0  0  0  0  0  0  0  0  0  0
 19 20  2  0  0  0
 20 21  1  0  0  0
 20 18  1  0  0  0
 21 22  1  0  0  0
 18 13  1  0  0  0
 13 14  1  0  0  0
 13 17  1  0  0  0
 14 15  2  0  0  0
 15 16  1  0  0  0
 16 11  1  0  0  0
 16 17  2  0  0  0
 11 12  2  0  0  0
 11  2  1  0  0  0
  2  3  2  0  0  0
  2 10  1  0  0  0
  3  4  1  0  0  0
  4  5  1  0  0  0
  4  9  2  0  0  0
  5  6  2  0  0  0
  6  7  1  0  0  0
  7  8  2  0  0  0
  8  1  1  0  0  0
  8  9  1  0  0  0
  1 23  1  0  0  0
 23 24  1  0  0  0
 23 28  2  0  0  0
 24 25  2  0  0  0
 25 26  1  0  0  0
 26 30  1  0  0  0
 26 27  2  0  0  0
 30 31  1  0  0  0
 30 33  1  0  0  0
 31 32  2  0  0  0
 31 34  1  0  0  0
 34 35  1  0  0  0
 35 36  2  0  0  0
 35 37  1  0  0  0
 37 39  1  0  0  0
 37 38  1  0  0  0
 39 40  1  0  0  0
 39 44  2  0  0  0
 40 41  2  0  0  0
 41 42  1  0  0  0
 42 43  2  0  0  0
 43 44  1  0  0  0
 27 28  1  0  0  0
 28 29  1  0  0  0
  9 10  1  0  0  0
M  END
> <minimizedAffinity>
-10.47115

$$$$
