CHEMBL2385195


 54 60  0  0  0  0  0  0  0  0999 V2000
  -27.7195   -2.0871   -9.5049 C   0  0  0  0  0  0  0  0  0  0  0  0
  -28.5301   -1.9821   -8.3736 C   0  0  0  0  0  0  0  0  0  0  0  0
  -28.6959   -3.0785   -7.5171 C   0  0  0  0  0  0  0  0  0  0  0  0
  -28.1230   -4.3155   -7.8117 C   0  0  0  0  0  0  0  0  0  0  0  0
  -27.3717   -4.4459   -8.9853 C   0  0  0  0  0  0  0  0  0  0  0  0
  -27.1626   -3.3329   -9.8072 C   0  0  0  0  0  0  0  0  0  0  0  0
  -26.3850   -3.4748  -10.8924 F   0  0  0  0  0  0  0  0  0  0  0  0
  -28.3049   -5.4511   -6.9985 N   0  0  0  0  0  0  0  0  0  0  0  0
  -29.4921   -6.1346   -6.7925 C   0  0  0  0  0  0  0  0  0  0  0  0
  -30.6168   -5.7638   -7.1301 O   0  0  0  0  0  0  0  0  0  0  0  0
  -27.5060   -5.7547   -6.4418 H   0  0  0  0  0  0  0  0  0  0  0  0
  -29.3588   -7.4746   -6.0709 C   0  0  0  0  0  0  0  0  0  0  0  0
  -30.0759   -8.4694   -6.5098 N   0  0  0  0  0  0  0  0  0  0  0  0
  -29.9081   -9.7516   -6.0493 N   0  0  0  0  0  0  0  0  0  0  0  0
  -28.9003  -10.0389   -5.0698 C   0  0  0  0  0  0  0  0  0  0  0  0
  -28.5507  -11.3452   -4.6853 C   0  0  0  0  0  0  0  0  0  0  0  0
  -27.6125  -11.5937   -3.6694 C   0  0  0  0  0  0  0  0  0  0  0  0
  -26.9684  -10.5355   -3.0418 C   0  0  0  0  0  0  0  0  0  0  0  0
  -27.2333   -9.2364   -3.4474 C   0  0  0  0  0  0  0  0  0  0  0  0
  -28.1843   -9.0095   -4.4572 C   0  0  0  0  0  0  0  0  0  0  0  0
  -28.3997   -7.6565   -4.9382 C   0  0  0  0  0  0  0  0  0  0  0  0
  -27.7944   -6.6857   -4.5041 O   0  0  0  0  0  0  0  0  0  0  0  0
  -30.8657  -10.6776   -6.5939 C   0  0  0  0  0  0  0  0  0  0  0  0
  -32.1042  -10.8594   -5.9259 C   0  0  0  0  0  0  0  0  0  0  0  0
  -33.0758  -11.7624   -6.3650 C   0  0  0  0  0  0  0  0  0  0  0  0
  -32.8749  -12.4658   -7.5378 C   0  0  0  0  0  0  0  0  0  0  0  0
  -31.6957  -12.2720   -8.2505 C   0  0  0  0  0  0  0  0  0  0  0  0
  -30.6652  -11.4079   -7.7887 C   0  0  0  0  0  0  0  0  0  0  0  0
  -29.4190  -11.3995   -8.6522 C   0  0  0  0  0  0  0  0  0  0  0  0
  -28.2078  -11.5025   -8.0433 F   0  0  0  0  0  0  0  0  0  0  0  0
  -29.4312  -12.4657   -9.5186 F   0  0  0  0  0  0  0  0  0  0  0  0
  -29.3601  -10.3032   -9.4629 F   0  0  0  0  0  0  0  0  0  0  0  0
  -27.3932   -1.0410  -10.3499 O   0  0  0  0  0  0  0  0  0  0  0  0
  -23.8909    0.0849  -12.6635 C   0  0  0  0  0  0  0  0  0  0  0  0
  -24.9322   -0.4050  -11.8849 C   0  0  0  0  0  0  0  0  0  0  0  0
  -26.0977   -0.9503  -12.4548 C   0  0  0  0  0  0  0  0  0  0  0  0
  -27.2595   -1.2547  -11.7086 C   0  0  0  0  0  0  0  0  0  0  0  0
  -28.3437   -1.8620  -12.3302 C   0  0  0  0  0  0  0  0  0  0  0  0
  -28.2658   -2.0823  -13.6881 C   0  0  0  0  0  0  0  0  0  0  0  0
  -27.2050   -1.7301  -14.4482 N   0  0  0  0  0  0  0  0  0  0  0  0
  -26.1419   -1.1675  -13.8460 C   0  0  0  0  0  0  0  0  0  0  0  0
  -25.0302   -0.8043  -14.6045 C   0  0  0  0  0  0  0  0  0  0  0  0
  -23.9009   -0.2005  -14.0333 C   0  0  0  0  0  0  0  0  0  0  0  0
  -22.9107    2.2516  -12.3020 C   0  0  0  0  0  0  0  0  0  0  0  0
  -22.8737    0.8361  -12.1453 O   0  0  0  0  0  0  0  0  0  0  0  0
  -22.8715    0.0409  -14.9125 O   0  0  0  0  0  0  0  0  0  0  0  0
  -21.5663    0.0694  -14.3226 C   0  0  0  0  0  0  0  0  0  0  0  0
  -20.7804    1.2871  -14.7912 C   0  0  0  0  0  0  0  0  0  0  0  0
  -19.3573    0.9307  -15.2244 C   0  0  0  0  0  0  0  0  0  0  0  0
  -18.3406    1.6318  -14.4177 N   0  0  0  0  0  0  0  0  0  0  0  0
  -17.8671    2.8413  -15.1126 C   0  0  0  0  0  0  0  0  0  0  0  0
  -16.7180    2.3659  -15.9790 C   0  0  0  0  0  0  0  0  0  0  0  0
  -16.0362    1.3375  -15.1010 C   0  0  0  0  0  0  0  0  0  0  0  0
  -17.1329    0.8207  -14.1775 C   0  0  0  0  0  0  0  0  0  0  0  0
 44 45  1  0  0  0
 45 34  1  0  0  0
 34 35  1  0  0  0
 34 43  2  0  0  0
 35 36  2  0  0  0
 36 37  1  0  0  0
 36 41  1  0  0  0
 37 33  1  0  0  0
 37 38  2  0  0  0
 33  1  1  0  0  0
  1  2  1  0  0  0
  1  6  2  0  0  0
  2  3  2  0  0  0
  3  4  1  0  0  0
  4  8  1  0  0  0
  4  5  2  0  0  0
  8  9  1  0  0  0
  8 11  1  0  0  0
  9 10  2  0  0  0
  9 12  1  0  0  0
 12 13  2  0  0  0
 12 21  1  0  0  0
 13 14  1  0  0  0
 14 23  1  0  0  0
 14 15  1  0  0  0
 23 24  1  0  0  0
 23 28  2  0  0  0
 24 25  2  0  0  0
 25 26  1  0  0  0
 26 27  2  0  0  0
 27 28  1  0  0  0
 28 29  1  0  0  0
 29 30  1  0  0  0
 29 31  1  0  0  0
 29 32  1  0  0  0
 15 16  1  0  0  0
 15 20  2  0  0  0
 16 17  2  0  0  0
 17 18  1  0  0  0
 18 19  2  0  0  0
 19 20  1  0  0  0
 20 21  1  0  0  0
 21 22  2  0  0  0
  5  6  1  0  0  0
  6  7  1  0  0  0
 38 39  1  0  0  0
 39 40  2  0  0  0
 40 41  1  0  0  0
 41 42  2  0  0  0
 42 43  1  0  0  0
 43 46  1  0  0  0
 46 47  1  0  0  0
 47 48  1  0  0  0
 48 49  1  0  0  0
 49 50  1  0  0  0
 50 51  1  0  0  0
 50 54  1  0  0  0
 51 52  1  0  0  0
 52 53  1  0  0  0
 53 54  1  0  0  0
M  END
> <minimizedAffinity>
-4.76652

$$$$
