CHEMBL1995813


 27 30  0  0  0  0  0  0  0  0999 V2000
  -22.0057    0.5181  -14.2451 C   0  0  0  0  0  0  0  0  0  0  0  0
  -22.6424    1.6716  -14.0114 N   0  0  0  0  0  0  0  0  0  0  0  0
  -21.9278    2.8029  -14.1681 C   0  0  0  0  0  0  0  0  0  0  0  0
  -20.6037    2.8198  -14.5243 C   0  0  0  0  0  0  0  0  0  0  0  0
  -20.0368    1.5828  -14.7382 C   0  0  0  0  0  0  0  0  0  0  0  0
  -20.7270    0.4353  -14.6278 N   0  0  0  0  0  0  0  0  0  0  0  0
  -18.6203    1.4313  -15.0409 C   0  0  0  0  0  0  0  0  0  0  0  0
  -17.9524    0.2161  -15.0015 C   0  0  0  0  0  0  0  0  0  0  0  0
  -16.6554    0.4298  -15.3908 N   0  0  0  0  0  0  0  0  0  0  0  0
  -16.4662    1.7513  -15.6775 C   0  0  0  0  0  0  0  0  0  0  0  0
  -15.2952    2.2743  -16.0850 N   0  0  0  0  0  0  0  0  0  0  0  0
  -15.3661    3.6067  -16.3066 C   0  0  0  0  0  0  0  0  0  0  0  0
  -16.4992    4.3956  -16.1513 C   0  0  0  0  0  0  0  0  0  0  0  0
  -17.6873    3.7962  -15.7304 C   0  0  0  0  0  0  0  0  0  0  0  0
  -17.6743    2.4120  -15.4786 C   0  0  0  0  0  0  0  0  0  0  0  0
  -15.9288   -0.2656  -15.4742 H   0  0  0  0  0  0  0  0  0  0  0  0
  -22.7212   -0.6360  -13.9690 N   0  0  0  0  0  0  0  0  0  0  0  0
  -22.4223   -1.3377  -14.6365 H   0  0  0  0  0  0  0  0  0  0  0  0
  -24.0527    0.3692  -11.4357 N   0  0  0  0  0  0  0  0  0  0  0  0
  -24.5865   -0.6791  -12.3239 C   0  0  0  0  0  0  0  0  0  0  0  0
  -26.1123   -0.7352  -12.1418 C   0  0  0  0  0  0  0  0  0  0  0  0
  -26.7638   -1.7559  -13.0670 C   0  0  0  0  0  0  0  0  0  0  0  0
  -26.4212   -1.4607  -14.5177 C   0  0  0  0  0  0  0  0  0  0  0  0
  -24.9148   -1.4854  -14.7306 C   0  0  0  0  0  0  0  0  0  0  0  0
  -24.1753   -0.4777  -13.8248 C   0  0  0  0  0  0  0  0  0  0  0  0
  -24.3682    0.2104  -10.4810 H   0  0  0  0  0  0  0  0  0  0  0  0
  -24.4263    1.2754  -11.7161 H   0  0  0  0  0  0  0  0  0  0  0  0
 19 20  1  0  0  0
 19 26  1  0  0  0
 19 27  1  0  0  0
 20 21  1  0  0  0
 20 25  1  0  0  0
 21 22  1  0  0  0
 22 23  1  0  0  0
 23 24  1  0  0  0
 24 25  1  0  0  0
 25 17  1  0  0  0
 17  1  1  0  0  0
 17 18  1  0  0  0
  1  2  1  0  0  0
  1  6  2  0  0  0
  2  3  2  0  0  0
  3  4  1  0  0  0
  4  5  2  0  0  0
  5  7  1  0  0  0
  5  6  1  0  0  0
  7  8  2  0  0  0
  7 15  1  0  0  0
  8  9  1  0  0  0
  9 10  1  0  0  0
  9 16  1  0  0  0
 10 11  1  0  0  0
 10 15  2  0  0  0
 11 12  2  0  0  0
 12 13  1  0  0  0
 13 14  2  0  0  0
 14 15  1  0  0  0
M  END
> <minimizedAffinity>
-9.04216

$$$$
