CHEMBL3765306


 42 47  0  0  0  0  0  0  0  0999 V2000
  -12.8993    5.5694  -16.3857 C   0  0  0  0  0  0  0  0  0  0  0  0
  -13.2004    4.3950  -17.0869 C   0  0  0  0  0  0  0  0  0  0  0  0
  -12.8830    3.1496  -16.5535 C   0  0  0  0  0  0  0  0  0  0  0  0
  -12.2854    3.0446  -15.2823 C   0  0  0  0  0  0  0  0  0  0  0  0
  -12.0258    4.2185  -14.5565 C   0  0  0  0  0  0  0  0  0  0  0  0
  -11.4847    4.1445  -13.3153 F   0  0  0  0  0  0  0  0  0  0  0  0
  -12.3119    5.4757  -15.1124 C   0  0  0  0  0  0  0  0  0  0  0  0
  -12.4376    7.5083  -17.8661 C   0  0  0  0  0  0  0  0  0  0  0  0
  -11.3605    7.0624  -18.2356 O   0  0  0  0  0  0  0  0  0  0  0  0
  -13.2271    6.8158  -16.9897 N   0  0  0  0  0  0  0  0  0  0  0  0
  -14.1878    7.1635  -16.8366 H   0  0  0  0  0  0  0  0  0  0  0  0
  -14.0771   10.7581  -22.2188 C   0  0  0  0  0  0  0  0  0  0  0  0
  -13.8082    9.9015  -20.9914 C   0  0  0  0  0  0  0  0  0  0  0  0
  -14.7391    9.3126  -20.2671 N   0  0  0  0  0  0  0  0  0  0  0  0
  -14.4074    8.6714  -19.0848 C   0  0  0  0  0  0  0  0  0  0  0  0
  -15.2699    8.0929  -18.4343 O   0  0  0  0  0  0  0  0  0  0  0  0
  -13.0194    8.7687  -18.4737 C   0  0  0  0  0  0  0  0  0  0  0  0
  -12.0176    9.3776  -19.4047 C   0  0  0  0  0  0  0  0  0  0  0  0
  -12.3842    9.8790  -20.5789 C   0  0  0  0  0  0  0  0  0  0  0  0
  -16.1364    9.4126  -20.6171 C   0  0  0  0  0  0  0  0  0  0  0  0
  -16.8686   10.5200  -20.1459 C   0  0  0  0  0  0  0  0  0  0  0  0
  -18.1942   10.7204  -20.5149 C   0  0  0  0  0  0  0  0  0  0  0  0
  -18.8308    9.8057  -21.3503 C   0  0  0  0  0  0  0  0  0  0  0  0
  -18.1391    8.6806  -21.8106 C   0  0  0  0  0  0  0  0  0  0  0  0
  -16.7939    8.4787  -21.4499 C   0  0  0  0  0  0  0  0  0  0  0  0
  -11.9802    1.8299  -14.7436 O   0  0  0  0  0  0  0  0  0  0  0  0
  -12.8941    0.8959  -14.3675 C   0  0  0  0  0  0  0  0  0  0  0  0
  -14.0754    1.2601  -13.6704 C   0  0  0  0  0  0  0  0  0  0  0  0
  -14.9939    0.2908  -13.2608 C   0  0  0  0  0  0  0  0  0  0  0  0
  -14.7138   -1.0322  -13.5595 C   0  0  0  0  0  0  0  0  0  0  0  0
  -15.4709   -2.0909  -13.2244 N   0  0  0  0  0  0  0  0  0  0  0  0
  -14.7834   -3.1494  -13.7140 C   0  0  0  0  0  0  0  0  0  0  0  0
  -13.6261   -2.7145  -14.3519 C   0  0  0  0  0  0  0  0  0  0  0  0
  -13.6014   -1.3738  -14.2355 N   0  0  0  0  0  0  0  0  0  0  0  0
  -12.6783   -0.4675  -14.6661 C   0  0  0  0  0  0  0  0  0  0  0  0
  -15.1925   -4.5069  -13.5751 N   0  0  0  0  0  0  0  0  0  0  0  0
  -14.7655   -5.3244  -12.5650 C   0  0  0  0  0  0  0  0  0  0  0  0
  -14.0037   -4.9054  -11.7029 O   0  0  0  0  0  0  0  0  0  0  0  0
  -15.8313   -4.8919  -14.2847 H   0  0  0  0  0  0  0  0  0  0  0  0
  -15.2452   -6.7599  -12.5129 C   0  0  0  0  0  0  0  0  0  0  0  0
  -14.4084   -7.8770  -13.1357 C   0  0  0  0  0  0  0  0  0  0  0  0
  -15.5152   -7.2221  -13.9381 C   0  0  0  0  0  0  0  0  0  0  0  0
 12 13  1  0  0  0
 13 14  2  0  0  0
 13 19  1  0  0  0
 14 20  1  0  0  0
 14 15  1  0  0  0
 20 21  1  0  0  0
 20 25  2  0  0  0
 21 22  2  0  0  0
 22 23  1  0  0  0
 23 24  2  0  0  0
 24 25  1  0  0  0
 15 16  2  0  0  0
 15 17  1  0  0  0
 17  8  1  0  0  0
 17 18  1  0  0  0
  8  9  2  0  0  0
  8 10  1  0  0  0
 10  1  1  0  0  0
 10 11  1  0  0  0
  1  2  1  0  0  0
  1  7  2  0  0  0
  2  3  2  0  0  0
  3  4  1  0  0  0
  4 26  1  0  0  0
  4  5  2  0  0  0
 26 27  1  0  0  0
 27 28  1  0  0  0
 27 35  2  0  0  0
 28 29  2  0  0  0
 29 30  1  0  0  0
 30 31  2  0  0  0
 30 34  1  0  0  0
 31 32  1  0  0  0
 32 36  1  0  0  0
 32 33  2  0  0  0
 36 37  1  0  0  0
 36 39  1  0  0  0
 37 38  2  0  0  0
 37 40  1  0  0  0
 40 41  1  0  0  0
 40 42  1  0  0  0
 41 42  1  0  0  0
 33 34  1  0  0  0
 34 35  1  0  0  0
  5  6  1  0  0  0
  5  7  1  0  0  0
 18 19  2  0  0  0
M  CHG 1  14   1
M  END
> <minimizedAffinity>
-7.01429

$$$$
