CHEMBL4162460


 31 35  0  0  0  0  0  0  0  0999 V2000
  -29.8832   -5.3108   -5.8066 C   0  0  0  0  0  0  0  0  0  0  0  0
  -29.5540   -4.5137   -4.7048 C   0  0  0  0  0  0  0  0  0  0  0  0
  -28.8731   -3.2966   -4.8594 C   0  0  0  0  0  0  0  0  0  0  0  0
  -28.5483   -2.9152   -6.1675 C   0  0  0  0  0  0  0  0  0  0  0  0
  -28.8193   -3.7215   -7.2636 C   0  0  0  0  0  0  0  0  0  0  0  0
  -29.4630   -4.9493   -7.0906 C   0  0  0  0  0  0  0  0  0  0  0  0
  -28.3920   -3.1396   -8.4180 N   0  0  0  0  0  0  0  0  0  0  0  0
  -27.8834   -1.9730   -8.0889 C   0  0  0  0  0  0  0  0  0  0  0  0
  -27.9613   -1.7932   -6.7196 N   0  0  0  0  0  0  0  0  0  0  0  0
  -27.5743   -0.6332   -5.9568 C   0  0  0  0  0  0  0  0  0  0  0  0
  -27.3254   -1.0623   -8.9266 N   0  0  0  0  0  0  0  0  0  0  0  0
  -27.0557   -0.1487   -8.5841 H   0  0  0  0  0  0  0  0  0  0  0  0
  -26.8018   -1.3706  -10.2033 C   0  0  0  0  0  0  0  0  0  0  0  0
  -25.4287   -1.3261  -10.4892 C   0  0  0  0  0  0  0  0  0  0  0  0
  -24.9442   -1.5155  -11.7869 C   0  0  0  0  0  0  0  0  0  0  0  0
  -25.8328   -1.7527  -12.8335 C   0  0  0  0  0  0  0  0  0  0  0  0
  -25.1792   -1.9347  -14.4218 Cl  0  0  0  0  0  0  0  0  0  0  0  0
  -27.2036   -1.8208  -12.5690 C   0  0  0  0  0  0  0  0  0  0  0  0
  -28.3701   -2.1098  -13.8134 Cl  0  0  0  0  0  0  0  0  0  0  0  0
  -27.6811   -1.6352  -11.2621 C   0  0  0  0  0  0  0  0  0  0  0  0
  -30.5808   -6.4715   -5.5429 O   0  0  0  0  0  0  0  0  0  0  0  0
  -31.2366  -11.5451   -8.6832 C   0  0  0  0  0  0  0  0  0  0  0  0
  -31.3406  -10.2616   -8.0396 N   0  0  0  0  0  0  0  0  0  0  0  0
  -32.4943   -9.5561   -8.0936 N   0  0  0  0  0  0  0  0  0  0  0  0
  -32.2194   -8.4603   -7.3766 C   0  0  0  0  0  0  0  0  0  0  0  0
  -30.9067   -8.4571   -6.8761 C   0  0  0  0  0  0  0  0  0  0  0  0
  -30.0905   -7.6504   -6.0901 C   0  0  0  0  0  0  0  0  0  0  0  0
  -28.8029   -8.0243   -5.8689 N   0  0  0  0  0  0  0  0  0  0  0  0
  -28.3970   -9.2094   -6.3606 C   0  0  0  0  0  0  0  0  0  0  0  0
  -29.1036  -10.0862   -7.0938 N   0  0  0  0  0  0  0  0  0  0  0  0
  -30.3520   -9.6406   -7.3269 C   0  0  0  0  0  0  0  0  0  0  0  0
 22 23  1  0  0  0
 23 24  1  0  0  0
 23 31  1  0  0  0
 24 25  2  0  0  0
 25 26  1  0  0  0
 26 27  1  0  0  0
 26 31  2  0  0  0
 27 21  1  0  0  0
 27 28  2  0  0  0
 21  1  1  0  0  0
  1  2  1  0  0  0
  1  6  2  0  0  0
  2  3  2  0  0  0
  3  4  1  0  0  0
  4  5  2  0  0  0
  4  9  1  0  0  0
  5  6  1  0  0  0
  5  7  1  0  0  0
  7  8  2  0  0  0
  8 11  1  0  0  0
  8  9  1  0  0  0
 11 13  1  0  0  0
 11 12  1  0  0  0
 13 14  1  0  0  0
 13 20  2  0  0  0
 14 15  2  0  0  0
 15 16  1  0  0  0
 16 17  1  0  0  0
 16 18  2  0  0  0
 18 19  1  0  0  0
 18 20  1  0  0  0
  9 10  1  0  0  0
 28 29  1  0  0  0
 29 30  2  0  0  0
 30 31  1  0  0  0
M  END
> <minimizedAffinity>
-9.45392

$$$$
