CHEMBL2032029


 41 45  0  0  0  0  0  0  0  0999 V2000
  -13.0382    0.9745  -15.9617 N   0  0  0  0  0  0  0  0  0  0  0  0
  -12.4457    0.3740  -14.8665 C   0  0  0  0  0  0  0  0  0  0  0  0
  -11.6452    0.9020  -14.1004 O   0  0  0  0  0  0  0  0  0  0  0  0
  -13.5615    0.3908  -16.6071 H   0  0  0  0  0  0  0  0  0  0  0  0
  -12.8296   -1.0393  -14.6456 C   0  0  0  0  0  0  0  0  0  0  0  0
  -12.4191   -2.1322  -15.3229 C   0  0  0  0  0  0  0  0  0  0  0  0
  -11.4207   -2.1906  -16.4420 C   0  0  0  0  0  0  0  0  0  0  0  0
  -13.0020   -3.2983  -14.8181 N   0  0  0  0  0  0  0  0  0  0  0  0
  -13.6676   -2.9540  -13.6186 N   0  0  0  0  0  0  0  0  0  0  0  0
  -13.7679   -1.5540  -13.6104 C   0  0  0  0  0  0  0  0  0  0  0  0
  -14.4415   -0.8249  -12.8948 O   0  0  0  0  0  0  0  0  0  0  0  0
  -14.6513   -3.8065  -13.0820 C   0  0  0  0  0  0  0  0  0  0  0  0
  -15.9224   -3.9386  -13.6478 C   0  0  0  0  0  0  0  0  0  0  0  0
  -16.8495   -4.8160  -13.0750 C   0  0  0  0  0  0  0  0  0  0  0  0
  -16.5192   -5.5401  -11.9273 C   0  0  0  0  0  0  0  0  0  0  0  0
  -15.2586   -5.3968  -11.3519 C   0  0  0  0  0  0  0  0  0  0  0  0
  -14.3256   -4.5369  -11.9318 C   0  0  0  0  0  0  0  0  0  0  0  0
  -12.7166   -4.6887  -15.1718 C   0  0  0  0  0  0  0  0  0  0  0  0
  -13.7298   -5.2508  -16.1910 C   0  0  0  0  0  0  0  0  0  0  0  0
  -13.2118   -5.2676  -17.6256 C   0  0  0  0  0  0  0  0  0  0  0  0
  -14.1073   -6.5834  -15.8201 O   0  0  0  0  0  0  0  0  0  0  0  0
  -13.4364   -7.2023  -16.1559 H   0  0  0  0  0  0  0  0  0  0  0  0
  -12.8254    5.0446  -16.8820 C   0  0  0  0  0  0  0  0  0  0  0  0
  -13.6334    4.6087  -15.8348 C   0  0  0  0  0  0  0  0  0  0  0  0
  -13.6897    3.2454  -15.5122 C   0  0  0  0  0  0  0  0  0  0  0  0
  -12.9302    2.3453  -16.2509 C   0  0  0  0  0  0  0  0  0  0  0  0
  -12.0960    2.7684  -17.2163 N   0  0  0  0  0  0  0  0  0  0  0  0
  -12.0409    4.0895  -17.5056 C   0  0  0  0  0  0  0  0  0  0  0  0
  -12.9031    6.3751  -17.2190 O   0  0  0  0  0  0  0  0  0  0  0  0
  -11.9736    9.6933  -21.0938 C   0  0  0  0  0  0  0  0  0  0  0  0
  -11.2520    9.4121  -19.9448 C   0  0  0  0  0  0  0  0  0  0  0  0
  -11.6830    8.4011  -19.0936 C   0  0  0  0  0  0  0  0  0  0  0  0
  -12.8990    7.7113  -19.3133 C   0  0  0  0  0  0  0  0  0  0  0  0
  -13.4574    6.7612  -18.4244 C   0  0  0  0  0  0  0  0  0  0  0  0
  -14.6124    6.0761  -18.7847 C   0  0  0  0  0  0  0  0  0  0  0  0
  -15.2151    6.3997  -19.9819 C   0  0  0  0  0  0  0  0  0  0  0  0
  -14.7562    7.3508  -20.8187 N   0  0  0  0  0  0  0  0  0  0  0  0
  -13.6233    7.9983  -20.4927 C   0  0  0  0  0  0  0  0  0  0  0  0
  -13.1500    8.9854  -21.3519 C   0  0  0  0  0  0  0  0  0  0  0  0
  -10.7524   11.6605  -21.5173 C   0  0  0  0  0  0  0  0  0  0  0  0
  -11.6193   10.6427  -22.0139 O   0  0  0  0  0  0  0  0  0  0  0  0
 40 41  1  0  0  0
 41 30  1  0  0  0
 30 31  1  0  0  0
 30 39  2  0  0  0
 31 32  2  0  0  0
 32 33  1  0  0  0
 33 34  1  0  0  0
 33 38  2  0  0  0
 34 29  1  0  0  0
 34 35  2  0  0  0
 29 23  1  0  0  0
 23 24  1  0  0  0
 23 28  2  0  0  0
 24 25  2  0  0  0
 25 26  1  0  0  0
 26  1  1  0  0  0
 26 27  2  0  0  0
  1  2  1  0  0  0
  1  4  1  0  0  0
  2  3  2  0  0  0
  2  5  1  0  0  0
  5  6  2  0  0  0
  5 10  1  0  0  0
  6  7  1  0  0  0
  6  8  1  0  0  0
  8 18  1  0  0  0
  8  9  1  0  0  0
 18 19  1  0  0  0
 19 20  1  0  0  0
 19 21  1  0  0  0
 21 22  1  0  0  0
  9 12  1  0  0  0
  9 10  1  0  0  0
 12 13  1  0  0  0
 12 17  2  0  0  0
 13 14  2  0  0  0
 14 15  1  0  0  0
 15 16  2  0  0  0
 16 17  1  0  0  0
 10 11  2  0  0  0
 27 28  1  0  0  0
 35 36  1  0  0  0
 36 37  2  0  0  0
 37 38  1  0  0  0
 38 39  1  0  0  0
M  END
> <minimizedAffinity>
-5.41000

$$$$
