CHEMBL4169668


 34 36  0  0  0  0  0  0  0  0999 V2000
  -23.5516    0.0930  -13.4111 C   0  0  0  0  0  0  0  0  0  0  0  0
  -23.9850    0.4813  -12.1416 C   0  0  0  0  0  0  0  0  0  0  0  0
  -25.0743   -0.1312  -11.5242 C   0  0  0  0  0  0  0  0  0  0  0  0
  -25.7886   -1.1601  -12.1399 C   0  0  0  0  0  0  0  0  0  0  0  0
  -25.3759   -1.5596  -13.4129 C   0  0  0  0  0  0  0  0  0  0  0  0
  -24.2655   -0.9450  -14.0355 C   0  0  0  0  0  0  0  0  0  0  0  0
  -20.2672    2.1687  -15.1191 C   0  0  0  0  0  0  0  0  0  0  0  0
  -20.2953    0.7869  -15.2266 C   0  0  0  0  0  0  0  0  0  0  0  0
  -21.3728    0.0999  -14.6695 C   0  0  0  0  0  0  0  0  0  0  0  0
  -22.4142    0.7925  -14.0352 C   0  0  0  0  0  0  0  0  0  0  0  0
  -22.2638    2.1762  -13.9715 C   0  0  0  0  0  0  0  0  0  0  0  0
  -21.2037    2.8725  -14.4582 N   0  0  0  0  0  0  0  0  0  0  0  0
  -17.9316    2.8272  -15.2721 C   0  0  0  0  0  0  0  0  0  0  0  0
  -17.4980    2.0912  -14.3936 O   0  0  0  0  0  0  0  0  0  0  0  0
  -19.2417    2.9338  -15.6698 N   0  0  0  0  0  0  0  0  0  0  0  0
  -19.4405    3.2480  -16.6082 H   0  0  0  0  0  0  0  0  0  0  0  0
  -15.7507    3.3189  -16.2850 C   0  0  0  0  0  0  0  0  0  0  0  0
  -17.0285    3.6725  -16.0978 C   0  0  0  0  0  0  0  0  0  0  0  0
  -26.9022   -1.7913  -11.5291 N   0  0  0  0  0  0  0  0  0  0  0  0
  -27.0475   -1.9871  -10.1600 C   0  0  0  0  0  0  0  0  0  0  0  0
  -26.1845   -1.6872   -9.3399 O   0  0  0  0  0  0  0  0  0  0  0  0
  -28.2505   -2.5694   -9.7961 N   0  0  0  0  0  0  0  0  0  0  0  0
  -27.6363   -2.1345  -12.1386 H   0  0  0  0  0  0  0  0  0  0  0  0
  -28.7028   -3.1562  -10.4800 H   0  0  0  0  0  0  0  0  0  0  0  0
  -28.6186   -2.7578   -8.4343 C   0  0  0  0  0  0  0  0  0  0  0  0
  -29.3988   -3.8468   -8.0212 C   0  0  0  0  0  0  0  0  0  0  0  0
  -29.8654   -3.9578   -6.7140 C   0  0  0  0  0  0  0  0  0  0  0  0
  -29.5081   -3.0018   -5.7766 C   0  0  0  0  0  0  0  0  0  0  0  0
  -28.6594   -1.9385   -6.1346 C   0  0  0  0  0  0  0  0  0  0  0  0
  -28.2147   -1.8286   -7.4719 C   0  0  0  0  0  0  0  0  0  0  0  0
  -28.2357   -0.9333   -5.0969 C   0  0  0  0  0  0  0  0  0  0  0  0
  -27.1442   -0.1989   -5.4540 F   0  0  0  0  0  0  0  0  0  0  0  0
  -29.2169   -0.0285   -4.8243 F   0  0  0  0  0  0  0  0  0  0  0  0
  -27.9213   -1.5124   -3.9061 F   0  0  0  0  0  0  0  0  0  0  0  0
 17 18  2  0  0  0
 18 13  1  0  0  0
 13 14  2  0  0  0
 13 15  1  0  0  0
 15  7  1  0  0  0
 15 16  1  0  0  0
  7  8  1  0  0  0
  7 12  2  0  0  0
  8  9  2  0  0  0
  9 10  1  0  0  0
 10  1  1  0  0  0
 10 11  2  0  0  0
  1  2  1  0  0  0
  1  6  2  0  0  0
  2  3  2  0  0  0
  3  4  1  0  0  0
  4 19  1  0  0  0
  4  5  2  0  0  0
 19 20  1  0  0  0
 19 23  1  0  0  0
 20 21  2  0  0  0
 20 22  1  0  0  0
 22 25  1  0  0  0
 22 24  1  0  0  0
 25 26  1  0  0  0
 25 30  2  0  0  0
 26 27  2  0  0  0
 27 28  1  0  0  0
 28 29  2  0  0  0
 29 31  1  0  0  0
 29 30  1  0  0  0
 31 32  1  0  0  0
 31 33  1  0  0  0
 31 34  1  0  0  0
  5  6  1  0  0  0
 11 12  1  0  0  0
M  END
> <minimizedAffinity>
-11.62389

$$$$
