CHEMBL3287310


 45 49  0  0  0  0  0  0  0  0999 V2000
  -29.1323   -3.2085   -4.5910 C   0  0  0  0  0  0  0  0  0  0  0  0
  -28.0420   -3.6582   -3.8387 C   0  0  0  0  0  0  0  0  0  0  0  0
  -27.5900   -4.9770   -3.9554 C   0  0  0  0  0  0  0  0  0  0  0  0
  -28.2458   -5.8879   -4.7841 C   0  0  0  0  0  0  0  0  0  0  0  0
  -29.3751   -5.4550   -5.4922 C   0  0  0  0  0  0  0  0  0  0  0  0
  -29.8119   -4.1272   -5.3888 C   0  0  0  0  0  0  0  0  0  0  0  0
  -30.8851   -3.7475   -6.0972 F   0  0  0  0  0  0  0  0  0  0  0  0
  -27.8157   -7.2220   -4.9602 N   0  0  0  0  0  0  0  0  0  0  0  0
  -28.1540   -8.3118   -4.1778 C   0  0  0  0  0  0  0  0  0  0  0  0
  -28.8682   -8.3193   -3.1851 O   0  0  0  0  0  0  0  0  0  0  0  0
  -27.2180   -7.4030   -5.7581 H   0  0  0  0  0  0  0  0  0  0  0  0
  -27.5293   -9.6054   -4.6048 C   0  0  0  0  0  0  0  0  0  0  0  0
  -27.2002  -10.6526   -3.5265 C   0  0  0  0  0  0  0  0  0  0  0  0
  -26.0883   -9.8461   -4.1202 C   0  0  0  0  0  0  0  0  0  0  0  0
  -27.8547  -10.1616   -5.9673 C   0  0  0  0  0  0  0  0  0  0  0  0
  -28.4597  -11.2343   -6.0160 O   0  0  0  0  0  0  0  0  0  0  0  0
  -27.4467   -9.4504   -7.0915 N   0  0  0  0  0  0  0  0  0  0  0  0
  -26.7195   -8.7493   -6.9806 H   0  0  0  0  0  0  0  0  0  0  0  0
  -27.8165   -9.8136   -8.4105 C   0  0  0  0  0  0  0  0  0  0  0  0
  -26.9436  -10.4947   -9.2730 C   0  0  0  0  0  0  0  0  0  0  0  0
  -27.3204  -10.8166  -10.5762 C   0  0  0  0  0  0  0  0  0  0  0  0
  -28.5900  -10.4857  -11.0154 C   0  0  0  0  0  0  0  0  0  0  0  0
  -28.9614  -10.8062  -12.2611 F   0  0  0  0  0  0  0  0  0  0  0  0
  -29.4789   -9.8259  -10.1765 C   0  0  0  0  0  0  0  0  0  0  0  0
  -29.0963   -9.4946   -8.8702 C   0  0  0  0  0  0  0  0  0  0  0  0
  -29.5521   -1.8879   -4.5631 O   0  0  0  0  0  0  0  0  0  0  0  0
  -27.8506   -0.9006   -7.5373 C   0  0  0  0  0  0  0  0  0  0  0  0
  -28.0560    0.4190   -7.6052 N   0  0  0  0  0  0  0  0  0  0  0  0
  -28.8480    0.9605   -6.6476 C   0  0  0  0  0  0  0  0  0  0  0  0
  -29.4215    0.2486   -5.6166 C   0  0  0  0  0  0  0  0  0  0  0  0
  -29.1176   -1.0814   -5.6116 C   0  0  0  0  0  0  0  0  0  0  0  0
  -28.3869   -1.6478   -6.5750 N   0  0  0  0  0  0  0  0  0  0  0  0
  -26.9996   -1.5053   -8.4682 N   0  0  0  0  0  0  0  0  0  0  0  0
  -26.3075   -2.0778   -8.0119 H   0  0  0  0  0  0  0  0  0  0  0  0
  -25.9330   -1.6455  -12.0503 C   0  0  0  0  0  0  0  0  0  0  0  0
  -27.1795   -1.6159  -12.6872 C   0  0  0  0  0  0  0  0  0  0  0  0
  -28.3425   -1.5005  -11.9595 C   0  0  0  0  0  0  0  0  0  0  0  0
  -28.2669   -1.4158  -10.5787 C   0  0  0  0  0  0  0  0  0  0  0  0
  -27.0563   -1.4967   -9.8750 C   0  0  0  0  0  0  0  0  0  0  0  0
  -25.8847   -1.6112  -10.6392 C   0  0  0  0  0  0  0  0  0  0  0  0
  -24.6769   -1.7686  -12.8692 C   0  0  0  0  0  0  0  0  0  0  0  0
  -22.6748   -0.1489  -14.0353 C   0  0  0  0  0  0  0  0  0  0  0  0
  -23.5078   -0.4487  -12.5053 S   0  0  0  0  0  0  0  0  0  0  0  0
  -22.4957   -0.8961  -11.5663 O   0  0  0  0  0  0  0  0  0  0  0  0
  -24.2955    0.7327  -12.1971 O   0  0  0  0  0  0  0  0  0  0  0  0
 42 43  1  0  0  0
 43 44  2  0  0  0
 43 45  2  0  0  0
 43 41  1  0  0  0
 41 35  1  0  0  0
 35 36  1  0  0  0
 35 40  2  0  0  0
 36 37  2  0  0  0
 37 38  1  0  0  0
 38 39  2  0  0  0
 39 33  1  0  0  0
 39 40  1  0  0  0
 33 27  1  0  0  0
 33 34  1  0  0  0
 27 28  1  0  0  0
 27 32  2  0  0  0
 28 29  2  0  0  0
 29 30  1  0  0  0
 30 31  2  0  0  0
 31 26  1  0  0  0
 31 32  1  0  0  0
 26  1  1  0  0  0
  1  2  1  0  0  0
  1  6  2  0  0  0
  2  3  2  0  0  0
  3  4  1  0  0  0
  4  8  1  0  0  0
  4  5  2  0  0  0
  8  9  1  0  0  0
  8 11  1  0  0  0
  9 10  2  0  0  0
  9 12  1  0  0  0
 12 15  1  0  0  0
 12 13  1  0  0  0
 12 14  1  0  0  0
 15 16  2  0  0  0
 15 17  1  0  0  0
 17 19  1  0  0  0
 17 18  1  0  0  0
 19 20  1  0  0  0
 19 25  2  0  0  0
 20 21  2  0  0  0
 21 22  1  0  0  0
 22 23  1  0  0  0
 22 24  2  0  0  0
 24 25  1  0  0  0
 13 14  1  0  0  0
  5  6  1  0  0  0
  6  7  1  0  0  0
M  END
> <minimizedAffinity>
-9.91218

$$$$
