CHEMBL214893


 37 42  0  0  0  0  0  0  0  0999 V2000
  -28.9708   -8.2073   -4.7511 C   0  0  0  0  0  0  0  0  0  0  0  0
  -29.3299   -8.0289   -3.4577 N   0  0  0  0  0  0  0  0  0  0  0  0
  -29.6874   -6.8080   -3.0843 C   0  0  0  0  0  0  0  0  0  0  0  0
  -29.7093   -5.7343   -3.8695 N   0  0  0  0  0  0  0  0  0  0  0  0
  -29.3504   -5.9197   -5.1392 C   0  0  0  0  0  0  0  0  0  0  0  0
  -29.3709   -4.7895   -5.9263 C   0  0  0  0  0  0  0  0  0  0  0  0
  -29.0309   -4.8145   -7.2764 C   0  0  0  0  0  0  0  0  0  0  0  0
  -28.6883   -6.0298   -7.8673 C   0  0  0  0  0  0  0  0  0  0  0  0
  -28.6799   -7.2016   -7.1030 C   0  0  0  0  0  0  0  0  0  0  0  0
  -28.9767   -7.1499   -5.6953 C   0  0  0  0  0  0  0  0  0  0  0  0
  -28.5044   -9.4944   -5.1001 N   0  0  0  0  0  0  0  0  0  0  0  0
  -29.2066  -10.0159   -5.6206 H   0  0  0  0  0  0  0  0  0  0  0  0
  -27.5690  -12.3707   -2.8754 C   0  0  0  0  0  0  0  0  0  0  0  0
  -28.3360  -11.4802   -3.6471 C   0  0  0  0  0  0  0  0  0  0  0  0
  -27.7627  -10.3533   -4.2618 C   0  0  0  0  0  0  0  0  0  0  0  0
  -26.3973  -10.1840   -4.0833 C   0  0  0  0  0  0  0  0  0  0  0  0
  -25.6484  -11.0548   -3.3188 C   0  0  0  0  0  0  0  0  0  0  0  0
  -26.2038  -12.1552   -2.7029 C   0  0  0  0  0  0  0  0  0  0  0  0
  -24.3331  -10.7109   -3.2678 O   0  0  0  0  0  0  0  0  0  0  0  0
  -24.3223   -9.5661   -4.1420 C   0  0  0  0  0  0  0  0  0  0  0  0
  -25.6311   -9.1824   -4.6063 O   0  0  0  0  0  0  0  0  0  0  0  0
  -29.0070   -3.7065   -8.0892 O   0  0  0  0  0  0  0  0  0  0  0  0
  -27.7219   -3.4027   -8.6454 C   0  0  0  0  0  0  0  0  0  0  0  0
  -27.5161   -1.8982   -8.7458 C   0  0  0  0  0  0  0  0  0  0  0  0
  -28.4300   -1.1935   -7.7318 C   0  0  0  0  0  0  0  0  0  0  0  0
  -27.7177   -0.3296   -6.7783 N   0  0  0  0  0  0  0  0  0  0  0  0
  -27.4957   -0.9620   -5.4686 C   0  0  0  0  0  0  0  0  0  0  0  0
  -28.7670   -0.6985   -4.6899 C   0  0  0  0  0  0  0  0  0  0  0  0
  -29.0949    0.7265   -5.0834 C   0  0  0  0  0  0  0  0  0  0  0  0
  -28.5141    0.8853   -6.4875 C   0  0  0  0  0  0  0  0  0  0  0  0
  -28.3914   -8.4422   -7.6209 O   0  0  0  0  0  0  0  0  0  0  0  0
  -28.4580   -8.6736   -9.0422 C   0  0  0  0  0  0  0  0  0  0  0  0
  -29.4504   -9.7933   -9.3785 C   0  0  0  0  0  0  0  0  0  0  0  0
  -29.2631  -10.3085  -10.7981 C   0  0  0  0  0  0  0  0  0  0  0  0
  -27.9134  -10.7088  -11.0162 O   0  0  0  0  0  0  0  0  0  0  0  0
  -27.0095   -9.6148  -10.8914 C   0  0  0  0  0  0  0  0  0  0  0  0
  -27.0390   -9.0641   -9.4764 C   0  0  0  0  0  0  0  0  0  0  0  0
 13 14  1  0  0  0
 13 18  2  0  0  0
 14 15  2  0  0  0
 15 11  1  0  0  0
 15 16  1  0  0  0
 11  1  1  0  0  0
 11 12  1  0  0  0
  1  2  1  0  0  0
  1 10  2  0  0  0
  2  3  2  0  0  0
  3  4  1  0  0  0
  4  5  2  0  0  0
  5  6  1  0  0  0
  5 10  1  0  0  0
  6  7  2  0  0  0
  7 22  1  0  0  0
  7  8  1  0  0  0
 22 23  1  0  0  0
 23 24  1  0  0  0
 24 25  1  0  0  0
 25 26  1  0  0  0
 26 27  1  0  0  0
 26 30  1  0  0  0
 27 28  1  0  0  0
 28 29  1  0  0  0
 29 30  1  0  0  0
  8  9  2  0  0  0
  9 31  1  0  0  0
  9 10  1  0  0  0
 31 32  1  0  0  0
 32 33  1  0  0  0
 32 37  1  0  0  0
 33 34  1  0  0  0
 34 35  1  0  0  0
 35 36  1  0  0  0
 36 37  1  0  0  0
 16 17  2  0  0  0
 16 21  1  0  0  0
 17 18  1  0  0  0
 17 19  1  0  0  0
 19 20  1  0  0  0
 20 21  1  0  0  0
M  END
> <minimizedAffinity>
-8.04384

$$$$
