CHEMBL1076330


 24 27  0  0  0  0  0  0  0  0999 V2000
  -27.5487  -12.4266   -9.3324 C   0  0  0  0  0  0  0  0  0  0  0  0
  -28.2586  -11.1776   -9.1665 N   0  0  0  0  0  0  0  0  0  0  0  0
  -29.0888  -10.6615  -10.1198 C   0  0  0  0  0  0  0  0  0  0  0  0
  -29.5896   -9.5099   -9.7503 N   0  0  0  0  0  0  0  0  0  0  0  0
  -29.0641   -9.2614   -8.4957 C   0  0  0  0  0  0  0  0  0  0  0  0
  -28.1996  -10.2862   -8.1102 C   0  0  0  0  0  0  0  0  0  0  0  0
  -27.3775  -10.4218   -6.9322 C   0  0  0  0  0  0  0  0  0  0  0  0
  -26.1026  -10.0847   -6.9313 N   0  0  0  0  0  0  0  0  0  0  0  0
  -25.5773  -10.2000   -5.6465 C   0  0  0  0  0  0  0  0  0  0  0  0
  -24.2953   -9.8714   -5.1675 C   0  0  0  0  0  0  0  0  0  0  0  0
  -23.3225   -9.2672   -5.9486 N   0  0  0  0  0  0  0  0  0  0  0  0
  -23.9893  -10.1402   -3.8797 N   0  0  0  0  0  0  0  0  0  0  0  0
  -24.9409  -10.6720   -3.0899 C   0  0  0  0  0  0  0  0  0  0  0  0
  -26.2049  -10.9737   -3.4159 N   0  0  0  0  0  0  0  0  0  0  0  0
  -26.4575  -10.7074   -4.7078 C   0  0  0  0  0  0  0  0  0  0  0  0
  -27.9891  -10.9302   -5.4030 S   0  0  0  0  0  0  0  0  0  0  0  0
  -23.4680   -9.3405   -6.9493 H   0  0  0  0  0  0  0  0  0  0  0  0
  -22.3865   -9.3832   -5.5847 H   0  0  0  0  0  0  0  0  0  0  0  0
  -29.4062   -8.0441   -7.7661 C   0  0  0  0  0  0  0  0  0  0  0  0
  -30.4502   -8.0054   -6.8315 C   0  0  0  0  0  0  0  0  0  0  0  0
  -30.6928   -6.8607   -6.0707 C   0  0  0  0  0  0  0  0  0  0  0  0
  -29.9324   -5.7143   -6.2771 C   0  0  0  0  0  0  0  0  0  0  0  0
  -28.9421   -5.7079   -7.2575 C   0  0  0  0  0  0  0  0  0  0  0  0
  -28.6808   -6.8662   -7.9978 C   0  0  0  0  0  0  0  0  0  0  0  0
  1  2  1  0  0  0
  2  3  1  0  0  0
  2  6  1  0  0  0
  3  4  2  0  0  0
  4  5  1  0  0  0
  5 19  1  0  0  0
  5  6  2  0  0  0
 19 20  1  0  0  0
 19 24  2  0  0  0
 20 21  2  0  0  0
 21 22  1  0  0  0
 22 23  2  0  0  0
 23 24  1  0  0  0
  6  7  1  0  0  0
  7  8  2  0  0  0
  7 16  1  0  0  0
  8  9  1  0  0  0
  9 10  1  0  0  0
  9 15  2  0  0  0
 10 11  1  0  0  0
 10 12  2  0  0  0
 11 17  1  0  0  0
 11 18  1  0  0  0
 12 13  1  0  0  0
 13 14  2  0  0  0
 14 15  1  0  0  0
 15 16  1  0  0  0
M  END
> <minimizedAffinity>
-6.61576

$$$$
