CHEMBL591896


 20 23  0  0  0  0  0  0  0  0999 V2000
  -28.3296   -7.6922   -7.2622 O   0  0  0  0  0  0  0  0  0  0  0  0
  -28.9961   -6.7907   -6.7455 C   0  0  0  0  0  0  0  0  0  0  0  0
  -29.6726   -5.7148   -7.5842 C   0  0  0  0  0  0  0  0  0  0  0  0
  -29.1481   -4.3816   -7.2078 C   0  0  0  0  0  0  0  0  0  0  0  0
  -28.5900   -3.4926   -8.2731 C   0  0  0  0  0  0  0  0  0  0  0  0
  -28.1970   -2.2631   -8.1214 N   0  0  0  0  0  0  0  0  0  0  0  0
  -28.0969   -1.8480   -6.8287 C   0  0  0  0  0  0  0  0  0  0  0  0
  -27.6814   -0.6667   -6.2662 C   0  0  0  0  0  0  0  0  0  0  0  0
  -27.2188   -1.0814   -5.0094 C   0  0  0  0  0  0  0  0  0  0  0  0
  -27.7140   -2.2655   -4.6390 N   0  0  0  0  0  0  0  0  0  0  0  0
  -28.4002   -2.6865   -5.7450 N   0  0  0  0  0  0  0  0  0  0  0  0
  -29.1076   -3.8733   -5.9557 C   0  0  0  0  0  0  0  0  0  0  0  0
  -29.9554   -4.5013   -4.9350 C   0  0  0  0  0  0  0  0  0  0  0  0
  -30.8541   -3.6476   -4.3773 N   0  0  0  0  0  0  0  0  0  0  0  0
  -31.7666   -4.1575   -3.5225 C   0  0  0  0  0  0  0  0  0  0  0  0
  -31.8090   -5.4917   -3.1610 C   0  0  0  0  0  0  0  0  0  0  0  0
  -30.8763   -6.3576   -3.7199 C   0  0  0  0  0  0  0  0  0  0  0  0
  -29.9803   -5.8659   -4.6739 C   0  0  0  0  0  0  0  0  0  0  0  0
  -29.2331   -6.8220   -5.3932 N   0  0  0  0  0  0  0  0  0  0  0  0
  -29.0052   -7.7086   -4.9561 H   0  0  0  0  0  0  0  0  0  0  0  0
  1  2  2  0  0  0
  2  3  1  0  0  0
  2 19  1  0  0  0
  3  4  1  0  0  0
  4  5  1  0  0  0
  4 12  2  0  0  0
  5  6  2  0  0  0
  6  7  1  0  0  0
  7  8  2  0  0  0
  7 11  1  0  0  0
  8  9  1  0  0  0
  9 10  2  0  0  0
 10 11  1  0  0  0
 11 12  1  0  0  0
 12 13  1  0  0  0
 13 14  1  0  0  0
 13 18  2  0  0  0
 14 15  2  0  0  0
 15 16  1  0  0  0
 16 17  2  0  0  0
 17 18  1  0  0  0
 18 19  1  0  0  0
 19 20  1  0  0  0
M  END
> <minimizedAffinity>
-7.60036

$$$$
