CHEMBL3741411


 42 46  0  0  0  0  0  0  0  0999 V2000
  -22.7655   -0.4153  -12.5503 C   0  0  0  0  0  0  0  0  0  0  0  0
  -23.0860   -0.7194  -13.8694 C   0  0  0  0  0  0  0  0  0  0  0  0
  -22.2187   -0.2829  -14.8828 C   0  0  0  0  0  0  0  0  0  0  0  0
  -21.1120    0.5550  -14.5878 C   0  0  0  0  0  0  0  0  0  0  0  0
  -20.2068    1.0976  -15.5243 C   0  0  0  0  0  0  0  0  0  0  0  0
  -20.7800    2.2278  -16.0205 C   0  0  0  0  0  0  0  0  0  0  0  0
  -21.0637    3.1617  -15.0304 C   0  0  0  0  0  0  0  0  0  0  0  0
  -21.1805    2.7109  -13.6822 C   0  0  0  0  0  0  0  0  0  0  0  0
  -21.3185    1.3107  -13.4487 C   0  0  0  0  0  0  0  0  0  0  0  0
  -21.9307    0.6854  -12.3323 C   0  0  0  0  0  0  0  0  0  0  0  0
  -18.7436    1.4610  -14.9956 C   0  0  0  0  0  0  0  0  0  0  0  0
  -18.4499    1.2611  -13.8207 O   0  0  0  0  0  0  0  0  0  0  0  0
  -17.8625    2.0342  -15.9440 N   0  0  0  0  0  0  0  0  0  0  0  0
  -18.2209    2.2242  -16.8744 H   0  0  0  0  0  0  0  0  0  0  0  0
  -16.4998    2.4384  -15.7628 C   0  0  0  0  0  0  0  0  0  0  0  0
  -15.4469    1.5576  -15.5032 C   0  0  0  0  0  0  0  0  0  0  0  0
  -14.1259    2.0212  -15.3821 C   0  0  0  0  0  0  0  0  0  0  0  0
  -13.8449    3.3766  -15.5086 C   0  0  0  0  0  0  0  0  0  0  0  0
  -12.5791    3.8059  -15.4083 F   0  0  0  0  0  0  0  0  0  0  0  0
  -14.8634    4.2824  -15.7540 C   0  0  0  0  0  0  0  0  0  0  0  0
  -16.1750    3.8091  -15.8763 C   0  0  0  0  0  0  0  0  0  0  0  0
  -17.1436    4.7007  -16.1438 F   0  0  0  0  0  0  0  0  0  0  0  0
  -23.4076   -1.1075  -11.5479 O   0  0  0  0  0  0  0  0  0  0  0  0
  -26.6519   -2.0963  -10.5381 C   0  0  0  0  0  0  0  0  0  0  0  0
  -27.4915   -1.5284  -11.4132 N   0  0  0  0  0  0  0  0  0  0  0  0
  -26.9393   -0.7627  -12.3723 C   0  0  0  0  0  0  0  0  0  0  0  0
  -25.5873   -0.5486  -12.4905 C   0  0  0  0  0  0  0  0  0  0  0  0
  -24.7942   -1.2009  -11.5732 C   0  0  0  0  0  0  0  0  0  0  0  0
  -25.3152   -1.9442  -10.5768 N   0  0  0  0  0  0  0  0  0  0  0  0
  -27.2504   -2.8805   -9.5316 N   0  0  0  0  0  0  0  0  0  0  0  0
  -27.8586   -3.5293  -10.0215 H   0  0  0  0  0  0  0  0  0  0  0  0
  -29.1452   -2.7525   -6.3184 C   0  0  0  0  0  0  0  0  0  0  0  0
  -28.9290   -1.4155   -5.9578 C   0  0  0  0  0  0  0  0  0  0  0  0
  -28.1675   -0.5743   -6.7802 C   0  0  0  0  0  0  0  0  0  0  0  0
  -27.6231   -1.0630   -7.9661 C   0  0  0  0  0  0  0  0  0  0  0  0
  -27.8575   -2.3840   -8.3723 C   0  0  0  0  0  0  0  0  0  0  0  0
  -28.6163   -3.2114   -7.5100 C   0  0  0  0  0  0  0  0  0  0  0  0
  -29.8990   -3.6786   -5.4123 C   0  0  0  0  0  0  0  0  0  0  0  0
  -29.2881   -2.9544   -2.7339 C   0  0  0  0  0  0  0  0  0  0  0  0
  -28.9292   -4.1791   -3.9862 S   0  0  0  0  0  0  0  0  0  0  0  0
  -27.5293   -4.1069   -4.3062 O   0  0  0  0  0  0  0  0  0  0  0  0
  -29.5077   -5.4250   -3.5198 O   0  0  0  0  0  0  0  0  0  0  0  0
 39 40  1  0  0  0
 40 41  2  0  0  0
 40 42  2  0  0  0
 40 38  1  0  0  0
 38 32  1  0  0  0
 32 33  1  0  0  0
 32 37  2  0  0  0
 33 34  2  0  0  0
 34 35  1  0  0  0
 35 36  2  0  0  0
 36 30  1  0  0  0
 36 37  1  0  0  0
 30 24  1  0  0  0
 30 31  1  0  0  0
 24 25  1  0  0  0
 24 29  2  0  0  0
 25 26  2  0  0  0
 26 27  1  0  0  0
 27 28  2  0  0  0
 28 23  1  0  0  0
 28 29  1  0  0  0
 23  1  1  0  0  0
  1  2  1  0  0  0
  1 10  2  0  0  0
  2  3  2  0  0  0
  3  4  1  0  0  0
  4  5  1  0  0  0
  4  9  2  0  0  0
  5 11  1  0  0  0
  5  6  2  0  0  0
 11 12  2  0  0  0
 11 13  1  0  0  0
 13 15  1  0  0  0
 13 14  1  0  0  0
 15 16  1  0  0  0
 15 21  2  0  0  0
 16 17  2  0  0  0
 17 18  1  0  0  0
 18 19  1  0  0  0
 18 20  2  0  0  0
 20 21  1  0  0  0
 21 22  1  0  0  0
  6  7  1  0  0  0
  7  8  2  0  0  0
  8  9  1  0  0  0
  9 10  1  0  0  0
M  END
> <minimizedAffinity>
-9.89107

$$$$
