CHEMBL3686062


 32 35  0  0  0  0  0  0  0  0999 V2000
  -29.8229   -6.1345   -3.5063 C   0  0  0  0  0  0  0  0  0  0  0  0
  -31.1832   -6.0975   -3.2100 C   0  0  0  0  0  0  0  0  0  0  0  0
  -31.9543   -4.9936   -3.5772 C   0  0  0  0  0  0  0  0  0  0  0  0
  -31.3711   -3.9193   -4.2493 C   0  0  0  0  0  0  0  0  0  0  0  0
  -30.0024   -3.9216   -4.5415 C   0  0  0  0  0  0  0  0  0  0  0  0
  -29.2390   -5.0295   -4.1401 C   0  0  0  0  0  0  0  0  0  0  0  0
  -29.3931   -2.7652   -5.2071 C   0  0  0  0  0  0  0  0  0  0  0  0
  -29.2575   -1.4625   -4.7492 C   0  0  0  0  0  0  0  0  0  0  0  0
  -28.5952   -0.6644   -5.6397 N   0  0  0  0  0  0  0  0  0  0  0  0
  -28.3294   -1.4455   -6.6618 C   0  0  0  0  0  0  0  0  0  0  0  0
  -27.6790   -1.1530   -7.8956 C   0  0  0  0  0  0  0  0  0  0  0  0
  -27.5722   -2.0888   -8.8708 C   0  0  0  0  0  0  0  0  0  0  0  0
  -28.0825   -3.4428   -8.6076 C   0  0  0  0  0  0  0  0  0  0  0  0
  -28.7089   -3.7198   -7.4547 C   0  0  0  0  0  0  0  0  0  0  0  0
  -28.8220   -2.7339   -6.4745 N   0  0  0  0  0  0  0  0  0  0  0  0
  -26.9842   -1.7466  -10.1919 C   0  0  0  0  0  0  0  0  0  0  0  0
  -27.7369   -1.7611  -11.3654 C   0  0  0  0  0  0  0  0  0  0  0  0
  -27.0986   -1.5387  -12.5832 C   0  0  0  0  0  0  0  0  0  0  0  0
  -25.7292   -1.3134  -12.6005 C   0  0  0  0  0  0  0  0  0  0  0  0
  -25.0517   -1.3149  -11.3945 C   0  0  0  0  0  0  0  0  0  0  0  0
  -25.6453   -1.5270  -10.1996 N   0  0  0  0  0  0  0  0  0  0  0  0
  -28.0750   -7.7374   -5.3063 O   0  0  0  0  0  0  0  0  0  0  0  0
  -28.1904   -7.9265   -4.1037 C   0  0  0  0  0  0  0  0  0  0  0  0
  -27.4765   -8.9186   -3.4608 N   0  0  0  0  0  0  0  0  0  0  0  0
  -28.9813   -7.2294   -3.2217 N   0  0  0  0  0  0  0  0  0  0  0  0
  -27.9117   -9.3024   -2.6322 H   0  0  0  0  0  0  0  0  0  0  0  0
  -28.9083   -7.4992   -2.2529 H   0  0  0  0  0  0  0  0  0  0  0  0
  -26.7087   -9.8631   -4.2714 C   0  0  0  0  0  0  0  0  0  0  0  0
  -25.1834   -9.7323   -4.1463 C   0  0  0  0  0  0  0  0  0  0  0  0
  -24.6161  -10.8812   -3.7074 F   0  0  0  0  0  0  0  0  0  0  0  0
  -24.5965   -9.3903   -5.3103 F   0  0  0  0  0  0  0  0  0  0  0  0
  -24.8736   -8.7750   -3.2364 F   0  0  0  0  0  0  0  0  0  0  0  0
 22 23  2  0  0  0
 23 24  1  0  0  0
 23 25  1  0  0  0
 24 28  1  0  0  0
 24 26  1  0  0  0
 28 29  1  0  0  0
 29 30  1  0  0  0
 29 31  1  0  0  0
 29 32  1  0  0  0
 25  1  1  0  0  0
 25 27  1  0  0  0
  1  2  1  0  0  0
  1  6  2  0  0  0
  2  3  2  0  0  0
  3  4  1  0  0  0
  4  5  2  0  0  0
  5  7  1  0  0  0
  5  6  1  0  0  0
  7  8  2  0  0  0
  7 15  1  0  0  0
  8  9  1  0  0  0
  9 10  2  0  0  0
 10 11  1  0  0  0
 10 15  1  0  0  0
 11 12  2  0  0  0
 12 16  1  0  0  0
 12 13  1  0  0  0
 16 17  1  0  0  0
 16 21  2  0  0  0
 17 18  2  0  0  0
 18 19  1  0  0  0
 19 20  2  0  0  0
 20 21  1  0  0  0
 13 14  2  0  0  0
 14 15  1  0  0  0
M  END
> <minimizedAffinity>
-9.90862

$$$$
