CHEMBL82069


 30 34  0  0  0  0  0  0  0  0999 V2000
  -14.7309   -6.9767  -12.4094 N   0  0  0  0  0  0  0  0  0  0  0  0
  -15.2766   -7.3105  -13.6368 C   0  0  0  0  0  0  0  0  0  0  0  0
  -15.8334   -6.3025  -14.2316 N   0  0  0  0  0  0  0  0  0  0  0  0
  -15.5412   -5.2536  -13.4157 C   0  0  0  0  0  0  0  0  0  0  0  0
  -15.5554   -3.9087  -13.7427 C   0  0  0  0  0  0  0  0  0  0  0  0
  -15.1567   -2.9525  -12.8238 C   0  0  0  0  0  0  0  0  0  0  0  0
  -14.8365   -3.3622  -11.5030 C   0  0  0  0  0  0  0  0  0  0  0  0
  -14.7711   -4.7295  -11.1546 C   0  0  0  0  0  0  0  0  0  0  0  0
  -15.0499   -5.6486  -12.1704 C   0  0  0  0  0  0  0  0  0  0  0  0
  -11.0942   -8.7914  -11.6392 C   0  0  0  0  0  0  0  0  0  0  0  0
  -11.2054   -7.4147  -11.6127 C   0  0  0  0  0  0  0  0  0  0  0  0
  -12.4501   -6.8248  -11.7555 C   0  0  0  0  0  0  0  0  0  0  0  0
  -13.5743   -7.6424  -11.9600 C   0  0  0  0  0  0  0  0  0  0  0  0
  -13.4924   -9.0275  -11.9407 C   0  0  0  0  0  0  0  0  0  0  0  0
  -12.2265   -9.6021  -11.7797 C   0  0  0  0  0  0  0  0  0  0  0  0
  -15.0889   -1.5525  -13.2464 C   0  0  0  0  0  0  0  0  0  0  0  0
  -15.8679   -0.5957  -12.6251 C   0  0  0  0  0  0  0  0  0  0  0  0
  -16.0186    0.6732  -13.1822 C   0  0  0  0  0  0  0  0  0  0  0  0
  -15.2999    0.9624  -14.3357 C   0  0  0  0  0  0  0  0  0  0  0  0
  -14.4218    0.1073  -14.8812 N   0  0  0  0  0  0  0  0  0  0  0  0
  -14.3265   -1.1262  -14.3400 C   0  0  0  0  0  0  0  0  0  0  0  0
  -15.4913    2.1787  -14.9803 O   0  0  0  0  0  0  0  0  0  0  0  0
  -16.6259    2.0953  -15.8743 C   0  0  0  0  0  0  0  0  0  0  0  0
  -17.6685    3.1807  -15.5648 C   0  0  0  0  0  0  0  0  0  0  0  0
  -19.0519    2.6530  -15.4717 N   0  0  0  0  0  0  0  0  0  0  0  0
  -19.0857    1.2151  -15.1549 C   0  0  0  0  0  0  0  0  0  0  0  0
  -20.5148    0.6783  -15.0937 C   0  0  0  0  0  0  0  0  0  0  0  0
  -21.3534    1.4593  -14.0959 C   0  0  0  0  0  0  0  0  0  0  0  0
  -21.2686    2.9515  -14.3930 C   0  0  0  0  0  0  0  0  0  0  0  0
  -19.8165    3.4255  -14.4814 C   0  0  0  0  0  0  0  0  0  0  0  0
 10 11  1  0  0  0
 10 15  2  0  0  0
 11 12  2  0  0  0
 12 13  1  0  0  0
 13  1  1  0  0  0
 13 14  2  0  0  0
  1  2  1  0  0  0
  1  9  1  0  0  0
  2  3  2  0  0  0
  3  4  1  0  0  0
  4  5  1  0  0  0
  4  9  2  0  0  0
  5  6  2  0  0  0
  6 16  1  0  0  0
  6  7  1  0  0  0
 16 17  1  0  0  0
 16 21  2  0  0  0
 17 18  2  0  0  0
 18 19  1  0  0  0
 19 22  1  0  0  0
 19 20  2  0  0  0
 22 23  1  0  0  0
 23 24  1  0  0  0
 24 25  1  0  0  0
 25 26  1  0  0  0
 25 30  1  0  0  0
 26 27  1  0  0  0
 27 28  1  0  0  0
 28 29  1  0  0  0
 29 30  1  0  0  0
 20 21  1  0  0  0
  7  8  2  0  0  0
  8  9  1  0  0  0
 14 15  1  0  0  0
M  END
> <minimizedAffinity>
-9.00036

$$$$
