CHEMBL231168


 40 43  0  0  0  0  0  0  0  0999 V2000
  -35.1048    5.7501  -10.5290 C   0  0  0  0  0  0  0  0  0  0  0  0
  -35.7032    4.4907  -10.6538 C   0  0  0  0  0  0  0  0  0  0  0  0
  -35.1420    3.3518  -10.0582 C   0  0  0  0  0  0  0  0  0  0  0  0
  -33.9794    3.5583   -9.3202 C   0  0  0  0  0  0  0  0  0  0  0  0
  -33.2060    2.7367   -8.5399 N   0  0  0  0  0  0  0  0  0  0  0  0
  -32.2333    3.5016   -7.9472 C   0  0  0  0  0  0  0  0  0  0  0  0
  -32.2542    4.7261   -8.4097 N   0  0  0  0  0  0  0  0  0  0  0  0
  -33.3456    4.7888   -9.2247 C   0  0  0  0  0  0  0  0  0  0  0  0
  -33.8762    5.8973   -9.8783 C   0  0  0  0  0  0  0  0  0  0  0  0
  -33.3922    1.7662   -8.3377 H   0  0  0  0  0  0  0  0  0  0  0  0
  -31.4664    2.9591   -6.9806 N   0  0  0  0  0  0  0  0  0  0  0  0
  -31.4150    3.4051   -6.0743 H   0  0  0  0  0  0  0  0  0  0  0  0
  -30.5674    1.8852   -7.1276 C   0  0  0  0  0  0  0  0  0  0  0  0
  -30.0582    1.4132   -8.3324 C   0  0  0  0  0  0  0  0  0  0  0  0
  -29.1739    0.3274   -8.3576 C   0  0  0  0  0  0  0  0  0  0  0  0
  -28.7922   -0.3395   -7.1763 C   0  0  0  0  0  0  0  0  0  0  0  0
  -29.2845    0.1377   -5.9563 C   0  0  0  0  0  0  0  0  0  0  0  0
  -30.1134    1.2740   -5.9570 C   0  0  0  0  0  0  0  0  0  0  0  0
  -27.9044   -1.5517   -7.2608 C   0  0  0  0  0  0  0  0  0  0  0  0
  -27.0494   -1.5102   -8.3273 F   0  0  0  0  0  0  0  0  0  0  0  0
  -27.1059   -1.7189   -6.1706 F   0  0  0  0  0  0  0  0  0  0  0  0
  -28.5996   -2.7153   -7.4112 F   0  0  0  0  0  0  0  0  0  0  0  0
  -28.9693   -0.5403   -4.7920 O   0  0  0  0  0  0  0  0  0  0  0  0
  -29.8922   -1.6091   -4.5136 C   0  0  0  0  0  0  0  0  0  0  0  0
  -29.3361   -2.7303   -3.6330 C   0  0  0  0  0  0  0  0  0  0  0  0
  -28.9847   -3.9266   -4.4433 N   0  0  0  0  0  0  0  0  0  0  0  0
  -27.6980   -4.5204   -4.0544 C   0  0  0  0  0  0  0  0  0  0  0  0
  -30.0348   -4.9413   -4.3290 C   0  0  0  0  0  0  0  0  0  0  0  0
  -35.7800    6.8164  -11.0909 O   0  0  0  0  0  0  0  0  0  0  0  0
  -33.4133    9.2665  -12.4756 C   0  0  0  0  0  0  0  0  0  0  0  0
  -34.0488    8.4935  -11.5156 C   0  0  0  0  0  0  0  0  0  0  0  0
  -35.0866    7.6641  -11.9291 C   0  0  0  0  0  0  0  0  0  0  0  0
  -35.5025    7.6953  -13.2537 C   0  0  0  0  0  0  0  0  0  0  0  0
  -34.8249    8.5189  -14.1385 C   0  0  0  0  0  0  0  0  0  0  0  0
  -33.7824    9.3040  -13.7889 N   0  0  0  0  0  0  0  0  0  0  0  0
  -29.9984   10.8681  -12.7657 C   0  0  0  0  0  0  0  0  0  0  0  0
  -31.2005   10.1149  -12.9953 N   0  0  0  0  0  0  0  0  0  0  0  0
  -32.2339   10.1050  -12.0832 C   0  0  0  0  0  0  0  0  0  0  0  0
  -32.2130   10.7270  -11.0267 O   0  0  0  0  0  0  0  0  0  0  0  0
  -31.3220    9.5553  -13.8351 H   0  0  0  0  0  0  0  0  0  0  0  0
 36 37  1  0  0  0
 37 38  1  0  0  0
 37 40  1  0  0  0
 38 39  2  0  0  0
 38 30  1  0  0  0
 30 31  1  0  0  0
 30 35  2  0  0  0
 31 32  2  0  0  0
 32 29  1  0  0  0
 32 33  1  0  0  0
 29  1  1  0  0  0
  1  2  1  0  0  0
  1  9  2  0  0  0
  2  3  2  0  0  0
  3  4  1  0  0  0
  4  5  1  0  0  0
  4  8  2  0  0  0
  5  6  1  0  0  0
  5 10  1  0  0  0
  6 11  1  0  0  0
  6  7  2  0  0  0
 11 13  1  0  0  0
 11 12  1  0  0  0
 13 14  1  0  0  0
 13 18  2  0  0  0
 14 15  2  0  0  0
 15 16  1  0  0  0
 16 19  1  0  0  0
 16 17  2  0  0  0
 19 20  1  0  0  0
 19 21  1  0  0  0
 19 22  1  0  0  0
 17 23  1  0  0  0
 17 18  1  0  0  0
 23 24  1  0  0  0
 24 25  1  0  0  0
 25 26  1  0  0  0
 26 27  1  0  0  0
 26 28  1  0  0  0
  7  8  1  0  0  0
  8  9  1  0  0  0
 33 34  2  0  0  0
 34 35  1  0  0  0
M  END
> <minimizedAffinity>
-4.16854

$$$$
