CHEMBL3979359


 31 34  0  0  0  0  0  0  0  0999 V2000
  -27.1947   -9.9620   -8.7467 C   0  0  0  0  0  0  0  0  0  0  0  0
  -26.9870  -11.0600   -9.5971 C   0  0  0  0  0  0  0  0  0  0  0  0
  -27.9522  -11.4273  -10.5344 C   0  0  0  0  0  0  0  0  0  0  0  0
  -29.1413  -10.7098  -10.6193 C   0  0  0  0  0  0  0  0  0  0  0  0
  -29.3743   -9.6410   -9.7503 C   0  0  0  0  0  0  0  0  0  0  0  0
  -28.4093   -9.2645   -8.8047 C   0  0  0  0  0  0  0  0  0  0  0  0
  -24.8344   -9.7721   -6.0120 N   0  0  0  0  0  0  0  0  0  0  0  0
  -25.8554  -10.2981   -6.7826 C   0  0  0  0  0  0  0  0  0  0  0  0
  -26.4407  -11.3512   -6.5623 O   0  0  0  0  0  0  0  0  0  0  0  0
  -26.1235   -9.5253   -7.9123 N   0  0  0  0  0  0  0  0  0  0  0  0
  -24.3054   -9.0125   -6.4123 H   0  0  0  0  0  0  0  0  0  0  0  0
  -25.2824   -9.2542   -8.4022 H   0  0  0  0  0  0  0  0  0  0  0  0
  -21.2461  -12.3523   -3.7864 C   0  0  0  0  0  0  0  0  0  0  0  0
  -22.5720  -11.6506   -3.7239 C   0  0  0  0  0  0  0  0  0  0  0  0
  -23.2979  -11.6456   -2.5285 C   0  0  0  0  0  0  0  0  0  0  0  0
  -24.5114  -10.9744   -2.4569 C   0  0  0  0  0  0  0  0  0  0  0  0
  -25.0139  -10.3183   -3.5770 C   0  0  0  0  0  0  0  0  0  0  0  0
  -26.1137   -9.5816   -3.3781 F   0  0  0  0  0  0  0  0  0  0  0  0
  -24.3439  -10.3526   -4.8101 C   0  0  0  0  0  0  0  0  0  0  0  0
  -23.0993  -11.0026   -4.8597 C   0  0  0  0  0  0  0  0  0  0  0  0
  -28.6678   -8.1048   -7.9999 C   0  0  0  0  0  0  0  0  0  0  0  0
  -28.8440   -7.0933   -7.3689 C   0  0  0  0  0  0  0  0  0  0  0  0
  -29.0321   -5.8264   -6.7152 C   0  0  0  0  0  0  0  0  0  0  0  0
  -29.7639   -4.7359   -7.4016 C   0  0  0  0  0  0  0  0  0  0  0  0
  -29.8927   -3.5828   -6.7354 C   0  0  0  0  0  0  0  0  0  0  0  0
  -29.3326   -3.4673   -5.4440 C   0  0  0  0  0  0  0  0  0  0  0  0
  -29.3188   -2.4614   -4.5952 N   0  0  0  0  0  0  0  0  0  0  0  0
  -28.6196   -2.9210   -3.5081 C   0  0  0  0  0  0  0  0  0  0  0  0
  -28.2083   -4.2201   -3.6974 C   0  0  0  0  0  0  0  0  0  0  0  0
  -28.6698   -4.5761   -4.9355 N   0  0  0  0  0  0  0  0  0  0  0  0
  -28.5004   -5.7948   -5.5355 N   0  0  0  0  0  0  0  0  0  0  0  0
 13 14  1  0  0  0
 14 15  1  0  0  0
 14 20  2  0  0  0
 15 16  2  0  0  0
 16 17  1  0  0  0
 17 18  1  0  0  0
 17 19  2  0  0  0
 19  7  1  0  0  0
 19 20  1  0  0  0
  7  8  1  0  0  0
  7 11  1  0  0  0
  8  9  2  0  0  0
  8 10  1  0  0  0
 10  1  1  0  0  0
 10 12  1  0  0  0
  1  2  1  0  0  0
  1  6  2  0  0  0
  2  3  2  0  0  0
  3  4  1  0  0  0
  4  5  2  0  0  0
  5  6  1  0  0  0
  6 21  1  0  0  0
 21 22  3  0  0  0
 22 23  1  0  0  0
 23 24  1  0  0  0
 23 31  2  0  0  0
 24 25  2  0  0  0
 25 26  1  0  0  0
 26 27  2  0  0  0
 26 30  1  0  0  0
 27 28  1  0  0  0
 28 29  2  0  0  0
 29 30  1  0  0  0
 30 31  1  0  0  0
M  END
> <minimizedAffinity>
-9.18220

$$$$
