CHEMBL4435366


 42 46  0  0  0  0  0  0  0  0999 V2000
  -13.2859   -1.0265  -13.6195 C   0  0  0  0  0  0  0  0  0  0  0  0
  -13.1997    0.3051  -14.0025 C   0  0  0  0  0  0  0  0  0  0  0  0
  -14.3050    0.9451  -14.5564 C   0  0  0  0  0  0  0  0  0  0  0  0
  -15.5010    0.2631  -14.7986 C   0  0  0  0  0  0  0  0  0  0  0  0
  -15.5638   -1.0961  -14.4760 C   0  0  0  0  0  0  0  0  0  0  0  0
  -14.4590   -1.7357  -13.8911 C   0  0  0  0  0  0  0  0  0  0  0  0
  -16.6498    0.8909  -15.3406 N   0  0  0  0  0  0  0  0  0  0  0  0
  -17.8043    1.1550  -14.6344 C   0  0  0  0  0  0  0  0  0  0  0  0
  -17.9593    0.9493  -13.4367 O   0  0  0  0  0  0  0  0  0  0  0  0
  -18.8268    1.6626  -15.4290 N   0  0  0  0  0  0  0  0  0  0  0  0
  -16.5868    1.2574  -16.2784 H   0  0  0  0  0  0  0  0  0  0  0  0
  -18.9083    1.2000  -16.3260 H   0  0  0  0  0  0  0  0  0  0  0  0
  -20.0643    1.9199  -14.7770 C   0  0  0  0  0  0  0  0  0  0  0  0
  -20.8788    0.8594  -14.3556 C   0  0  0  0  0  0  0  0  0  0  0  0
  -22.2030    1.0856  -13.9589 C   0  0  0  0  0  0  0  0  0  0  0  0
  -22.6909    2.4034  -13.9599 C   0  0  0  0  0  0  0  0  0  0  0  0
  -21.8566    3.4709  -14.3107 C   0  0  0  0  0  0  0  0  0  0  0  0
  -20.5428    3.2255  -14.6978 C   0  0  0  0  0  0  0  0  0  0  0  0
  -19.7694    4.2462  -15.0973 F   0  0  0  0  0  0  0  0  0  0  0  0
  -23.1009   -0.0705  -13.5890 C   0  0  0  0  0  0  0  0  0  0  0  0
  -24.0504    0.2417  -12.6641 F   0  0  0  0  0  0  0  0  0  0  0  0
  -23.7813   -0.5548  -14.6662 F   0  0  0  0  0  0  0  0  0  0  0  0
  -22.4123   -1.1282  -13.0786 F   0  0  0  0  0  0  0  0  0  0  0  0
  -12.2583   -1.7272  -13.0347 O   0  0  0  0  0  0  0  0  0  0  0  0
  -11.9996   -6.6764  -11.8031 C   0  0  0  0  0  0  0  0  0  0  0  0
  -11.4511   -6.4513  -13.0683 C   0  0  0  0  0  0  0  0  0  0  0  0
  -11.4004   -5.1961  -13.6453 C   0  0  0  0  0  0  0  0  0  0  0  0
  -10.8023   -5.1003  -14.8414 N   0  0  0  0  0  0  0  0  0  0  0  0
  -10.6977   -3.8847  -15.3731 C   0  0  0  0  0  0  0  0  0  0  0  0
  -11.1393   -2.7546  -14.8259 N   0  0  0  0  0  0  0  0  0  0  0  0
  -11.7924   -2.8867  -13.6490 C   0  0  0  0  0  0  0  0  0  0  0  0
  -11.9489   -4.1034  -12.9689 C   0  0  0  0  0  0  0  0  0  0  0  0
  -12.5802   -4.3175  -11.7120 C   0  0  0  0  0  0  0  0  0  0  0  0
  -12.6006   -5.5986  -11.1352 C   0  0  0  0  0  0  0  0  0  0  0  0
  -13.1862   -5.8372   -9.9129 O   0  0  0  0  0  0  0  0  0  0  0  0
  -14.1396   -4.8263   -9.5737 C   0  0  0  0  0  0  0  0  0  0  0  0
  -13.5389   -3.4475   -9.7550 C   0  0  0  0  0  0  0  0  0  0  0  0
  -13.1760   -3.2309  -11.1167 O   0  0  0  0  0  0  0  0  0  0  0  0
  -12.0058   -7.8986  -11.1756 O   0  0  0  0  0  0  0  0  0  0  0  0
  -13.9898   -8.2411  -12.4811 C   0  0  0  0  0  0  0  0  0  0  0  0
  -12.9105   -8.9156  -11.6373 C   0  0  0  0  0  0  0  0  0  0  0  0
  -12.1533   -9.9423  -12.4747 C   0  0  0  0  0  0  0  0  0  0  0  0
 40 41  1  0  0  0
 41 42  1  0  0  0
 41 39  1  0  0  0
 39 25  1  0  0  0
 25 26  1  0  0  0
 25 34  2  0  0  0
 26 27  2  0  0  0
 27 28  1  0  0  0
 27 32  1  0  0  0
 28 29  2  0  0  0
 29 30  1  0  0  0
 30 31  2  0  0  0
 31 24  1  0  0  0
 31 32  1  0  0  0
 24  1  1  0  0  0
  1  2  1  0  0  0
  1  6  2  0  0  0
  2  3  2  0  0  0
  3  4  1  0  0  0
  4  7  1  0  0  0
  4  5  2  0  0  0
  7  8  1  0  0  0
  7 11  1  0  0  0
  8  9  2  0  0  0
  8 10  1  0  0  0
 10 13  1  0  0  0
 10 12  1  0  0  0
 13 14  1  0  0  0
 13 18  2  0  0  0
 14 15  2  0  0  0
 15 20  1  0  0  0
 15 16  1  0  0  0
 20 21  1  0  0  0
 20 22  1  0  0  0
 20 23  1  0  0  0
 16 17  2  0  0  0
 17 18  1  0  0  0
 18 19  1  0  0  0
  5  6  1  0  0  0
 32 33  2  0  0  0
 33 34  1  0  0  0
 33 38  1  0  0  0
 34 35  1  0  0  0
 35 36  1  0  0  0
 36 37  1  0  0  0
 37 38  1  0  0  0
M  END
> <minimizedAffinity>
-8.77185

$$$$
