CHEMBL3919270


 35 39  0  0  0  0  0  0  0  0999 V2000
  -13.3647   -5.0976  -14.1322 N   0  0  0  0  0  0  0  0  0  0  0  0
  -12.8871   -3.7485  -14.3825 C   0  0  0  0  0  0  0  0  0  0  0  0
  -11.6725   -3.4582  -13.7654 C   0  0  0  0  0  0  0  0  0  0  0  0
  -11.4046   -2.1704  -13.3465 C   0  0  0  0  0  0  0  0  0  0  0  0
  -12.2247   -1.1259  -13.6753 C   0  0  0  0  0  0  0  0  0  0  0  0
  -11.9543    0.0120  -13.0199 N   0  0  0  0  0  0  0  0  0  0  0  0
  -12.5848    1.1064  -13.4447 C   0  0  0  0  0  0  0  0  0  0  0  0
  -13.3903    1.0986  -14.5658 C   0  0  0  0  0  0  0  0  0  0  0  0
  -13.7861   -0.0862  -15.1516 N   0  0  0  0  0  0  0  0  0  0  0  0
  -13.2393   -1.2764  -14.6371 C   0  0  0  0  0  0  0  0  0  0  0  0
  -13.6114   -2.6461  -14.9249 C   0  0  0  0  0  0  0  0  0  0  0  0
  -13.5951    2.3941  -15.2019 C   0  0  0  0  0  0  0  0  0  0  0  0
  -13.1217    3.6712  -14.7967 C   0  0  0  0  0  0  0  0  0  0  0  0
  -13.7091    4.6800  -15.4527 N   0  0  0  0  0  0  0  0  0  0  0  0
  -14.5668    4.0573  -16.2772 N   0  0  0  0  0  0  0  0  0  0  0  0
  -15.2012    4.7801  -17.3553 C   0  0  0  0  0  0  0  0  0  0  0  0
  -14.6514    2.7110  -16.0422 C   0  0  0  0  0  0  0  0  0  0  0  0
  -12.8724   -8.7120  -14.9122 C   0  0  0  0  0  0  0  0  0  0  0  0
  -13.3122   -8.7798  -16.2371 C   0  0  0  0  0  0  0  0  0  0  0  0
  -13.6531   -7.6048  -16.9010 C   0  0  0  0  0  0  0  0  0  0  0  0
  -13.6019   -6.3731  -16.2354 C   0  0  0  0  0  0  0  0  0  0  0  0
  -13.1771   -6.2699  -14.9045 C   0  0  0  0  0  0  0  0  0  0  0  0
  -12.7631   -7.4614  -14.2738 C   0  0  0  0  0  0  0  0  0  0  0  0
  -12.4029   -9.5769  -12.7464 C   0  0  0  0  0  0  0  0  0  0  0  0
  -12.5617   -9.8087  -14.1466 O   0  0  0  0  0  0  0  0  0  0  0  0
  -14.1281   -7.5393  -18.1849 O   0  0  0  0  0  0  0  0  0  0  0  0
  -13.6703   -8.5644  -19.0582 C   0  0  0  0  0  0  0  0  0  0  0  0
  -14.7230   -4.9492  -13.4886 C   0  0  0  0  0  0  0  0  0  0  0  0
  -14.8401   -4.2801  -12.1235 C   0  0  0  0  0  0  0  0  0  0  0  0
  -15.7403   -3.2437  -11.8208 C   0  0  0  0  0  0  0  0  0  0  0  0
  -15.8533   -2.7542  -10.5107 C   0  0  0  0  0  0  0  0  0  0  0  0
  -15.0917   -3.3030   -9.4754 C   0  0  0  0  0  0  0  0  0  0  0  0
  -14.2325   -4.3587   -9.7531 C   0  0  0  0  0  0  0  0  0  0  0  0
  -13.3268   -5.0867   -8.4826 Cl  0  0  0  0  0  0  0  0  0  0  0  0
  -14.1174   -4.8495  -11.0530 C   0  0  0  0  0  0  0  0  0  0  0  0
 24 25  1  0  0  0
 25 18  1  0  0  0
 18 19  1  0  0  0
 18 23  2  0  0  0
 19 20  2  0  0  0
 20 26  1  0  0  0
 20 21  1  0  0  0
 26 27  1  0  0  0
 21 22  2  0  0  0
 22  1  1  0  0  0
 22 23  1  0  0  0
  1 28  1  0  0  0
  1  2  1  0  0  0
 28 29  1  0  0  0
 29 30  1  0  0  0
 29 35  2  0  0  0
 30 31  2  0  0  0
 31 32  1  0  0  0
 32 33  2  0  0  0
 33 34  1  0  0  0
 33 35  1  0  0  0
  2  3  1  0  0  0
  2 11  2  0  0  0
  3  4  2  0  0  0
  4  5  1  0  0  0
  5  6  1  0  0  0
  5 10  2  0  0  0
  6  7  2  0  0  0
  7  8  1  0  0  0
  8 12  1  0  0  0
  8  9  2  0  0  0
 12 13  1  0  0  0
 12 17  2  0  0  0
 13 14  2  0  0  0
 14 15  1  0  0  0
 15 16  1  0  0  0
 15 17  1  0  0  0
  9 10  1  0  0  0
 10 11  1  0  0  0
M  END
> <minimizedAffinity>
-7.18324

$$$$
