CHEMBL1681936


 31 32  0  0  0  0  0  0  0  0999 V2000
  -28.9037   -6.7022   -6.8118 C   0  0  0  0  0  0  0  0  0  0  0  0
  -29.0146   -5.7533   -7.8276 C   0  0  0  0  0  0  0  0  0  0  0  0
  -28.7608   -4.4063   -7.5688 C   0  0  0  0  0  0  0  0  0  0  0  0
  -28.4220   -3.9686   -6.2879 C   0  0  0  0  0  0  0  0  0  0  0  0
  -28.4519   -4.9093   -5.2448 C   0  0  0  0  0  0  0  0  0  0  0  0
  -28.1448   -4.4269   -3.6072 Cl  0  0  0  0  0  0  0  0  0  0  0  0
  -28.6847   -6.2748   -5.5016 C   0  0  0  0  0  0  0  0  0  0  0  0
  -28.0461   -2.6128   -6.0578 N   0  0  0  0  0  0  0  0  0  0  0  0
  -28.9088   -1.6477   -5.5792 C   0  0  0  0  0  0  0  0  0  0  0  0
  -30.1057   -1.7960   -5.3419 O   0  0  0  0  0  0  0  0  0  0  0  0
  -28.3099   -0.4186   -5.4146 N   0  0  0  0  0  0  0  0  0  0  0  0
  -27.2380   -2.2807   -6.5665 H   0  0  0  0  0  0  0  0  0  0  0  0
  -27.3331   -0.4329   -5.1622 H   0  0  0  0  0  0  0  0  0  0  0  0
  -29.1157    0.7062   -4.9582 C   0  0  0  0  0  0  0  0  0  0  0  0
  -29.9452    1.3709   -6.0649 C   0  0  0  0  0  0  0  0  0  0  0  0
  -29.1561    1.8653   -7.1416 O   0  0  0  0  0  0  0  0  0  0  0  0
  -28.2747    2.0995   -6.7843 H   0  0  0  0  0  0  0  0  0  0  0  0
  -29.0235   -8.0558   -7.0792 O   0  0  0  0  0  0  0  0  0  0  0  0
  -30.4981   -9.6777   -8.0799 C   0  0  0  0  0  0  0  0  0  0  0  0
  -31.8209  -10.0706   -8.2680 C   0  0  0  0  0  0  0  0  0  0  0  0
  -32.1727  -11.2743   -8.8813 N   0  0  0  0  0  0  0  0  0  0  0  0
  -32.8630   -9.3862   -7.7704 N   0  0  0  0  0  0  0  0  0  0  0  0
  -32.5773   -8.2710   -7.0956 C   0  0  0  0  0  0  0  0  0  0  0  0
  -31.3527   -7.7861   -6.8780 N   0  0  0  0  0  0  0  0  0  0  0  0
  -30.3168   -8.5215   -7.3448 C   0  0  0  0  0  0  0  0  0  0  0  0
  -31.6067  -11.4531   -9.7100 H   0  0  0  0  0  0  0  0  0  0  0  0
  -33.1748  -11.3016   -9.0350 H   0  0  0  0  0  0  0  0  0  0  0  0
  -29.2496  -10.5327   -9.9480 N   0  0  0  0  0  0  0  0  0  0  0  0
  -29.3784  -10.4356   -8.6601 C   0  0  0  0  0  0  0  0  0  0  0  0
  -27.0570  -10.3983  -10.5645 C   0  0  0  0  0  0  0  0  0  0  0  0
  -28.1243  -11.2984  -10.2697 O   0  0  0  0  0  0  0  0  0  0  0  0
 30 31  1  0  0  0
 31 28  1  0  0  0
 28 29  2  0  0  0
 29 19  1  0  0  0
 19 20  1  0  0  0
 19 25  2  0  0  0
 20 21  1  0  0  0
 20 22  2  0  0  0
 21 26  1  0  0  0
 21 27  1  0  0  0
 22 23  1  0  0  0
 23 24  2  0  0  0
 24 25  1  0  0  0
 25 18  1  0  0  0
 18  1  1  0  0  0
  1  2  1  0  0  0
  1  7  2  0  0  0
  2  3  2  0  0  0
  3  4  1  0  0  0
  4  8  1  0  0  0
  4  5  2  0  0  0
  8  9  1  0  0  0
  8 12  1  0  0  0
  9 10  2  0  0  0
  9 11  1  0  0  0
 11 14  1  0  0  0
 11 13  1  0  0  0
 14 15  1  0  0  0
 15 16  1  0  0  0
 16 17  1  0  0  0
  5  6  1  0  0  0
  5  7  1  0  0  0
M  END
> <minimizedAffinity>
-7.74287

$$$$
