CHEMBL3657553


 38 42  0  0  0  0  0  0  0  0999 V2000
  -30.0876   -7.5599   -6.4202 C   0  0  0  0  0  0  0  0  0  0  0  0
  -31.2206   -7.9569   -7.0990 C   0  0  0  0  0  0  0  0  0  0  0  0
  -31.0898   -9.0959   -7.8448 C   0  0  0  0  0  0  0  0  0  0  0  0
  -29.9606   -9.8174   -7.8959 N   0  0  0  0  0  0  0  0  0  0  0  0
  -28.9017   -9.3860   -7.1930 C   0  0  0  0  0  0  0  0  0  0  0  0
  -28.9158   -8.2510   -6.4704 N   0  0  0  0  0  0  0  0  0  0  0  0
  -31.7158   -4.2801   -3.2332 C   0  0  0  0  0  0  0  0  0  0  0  0
  -30.9337   -4.8394   -4.3675 C   0  0  0  0  0  0  0  0  0  0  0  0
  -31.0416   -6.1384   -4.6716 N   0  0  0  0  0  0  0  0  0  0  0  0
  -30.1474   -6.3369   -5.6816 N   0  0  0  0  0  0  0  0  0  0  0  0
  -29.4141   -5.1940   -5.9155 C   0  0  0  0  0  0  0  0  0  0  0  0
  -30.0434   -4.1597   -5.2455 C   0  0  0  0  0  0  0  0  0  0  0  0
  -29.8274   -2.6843   -5.3427 C   0  0  0  0  0  0  0  0  0  0  0  0
  -28.5294   -2.2727   -5.9138 N   0  0  0  0  0  0  0  0  0  0  0  0
  -27.6034   -1.5869   -5.0022 C   0  0  0  0  0  0  0  0  0  0  0  0
  -27.5709   -0.1074   -5.3955 C   0  0  0  0  0  0  0  0  0  0  0  0
  -28.4543    0.7044   -4.6264 O   0  0  0  0  0  0  0  0  0  0  0  0
  -27.9899   -0.0797   -6.8580 C   0  0  0  0  0  0  0  0  0  0  0  0
  -28.6362   -1.4386   -7.1449 C   0  0  0  0  0  0  0  0  0  0  0  0
  -28.7897    0.1857   -3.8753 H   0  0  0  0  0  0  0  0  0  0  0  0
  -27.8938   -2.1448   -8.2922 C   0  0  0  0  0  0  0  0  0  0  0  0
  -26.8216   -1.7832   -8.7520 O   0  0  0  0  0  0  0  0  0  0  0  0
  -28.5593   -3.2369   -8.7474 O   0  0  0  0  0  0  0  0  0  0  0  0
  -29.3887   -3.2976   -8.2180 H   0  0  0  0  0  0  0  0  0  0  0  0
  -27.7116  -10.1190   -7.1935 N   0  0  0  0  0  0  0  0  0  0  0  0
  -27.2254   -9.9533   -8.0648 H   0  0  0  0  0  0  0  0  0  0  0  0
  -26.8874  -10.5359   -6.1275 C   0  0  0  0  0  0  0  0  0  0  0  0
  -27.3780  -10.9818   -4.8974 C   0  0  0  0  0  0  0  0  0  0  0  0
  -26.5346  -11.3584   -3.8413 C   0  0  0  0  0  0  0  0  0  0  0  0
  -25.1508  -11.2865   -4.0410 C   0  0  0  0  0  0  0  0  0  0  0  0
  -24.6116  -10.9037   -5.2682 C   0  0  0  0  0  0  0  0  0  0  0  0
  -25.4933  -10.5566   -6.3222 C   0  0  0  0  0  0  0  0  0  0  0  0
  -23.1963  -10.9508   -5.1265 C   0  0  0  0  0  0  0  0  0  0  0  0
  -22.0885  -10.5764   -6.3673 Cl  0  0  0  0  0  0  0  0  0  0  0  0
  -22.8935  -11.3019   -3.8232 C   0  0  0  0  0  0  0  0  0  0  0  0
  -21.5712  -11.4144   -3.1484 C   0  0  0  0  0  0  0  0  0  0  0  0
  -24.0930  -11.5389   -3.1835 N   0  0  0  0  0  0  0  0  0  0  0  0
  -24.2621  -11.9638   -1.8094 C   0  0  0  0  0  0  0  0  0  0  0  0
  7  8  1  0  0  0
  8  9  2  0  0  0
  8 12  1  0  0  0
  9 10  1  0  0  0
 10  1  1  0  0  0
 10 11  1  0  0  0
  1  2  1  0  0  0
  1  6  2  0  0  0
  2  3  2  0  0  0
  3  4  1  0  0  0
  4  5  2  0  0  0
  5 25  1  0  0  0
  5  6  1  0  0  0
 25 27  1  0  0  0
 25 26  1  0  0  0
 27 28  1  0  0  0
 27 32  2  0  0  0
 28 29  2  0  0  0
 29 30  1  0  0  0
 30 31  2  0  0  0
 30 37  1  0  0  0
 31 32  1  0  0  0
 31 33  1  0  0  0
 33 34  1  0  0  0
 33 35  2  0  0  0
 35 36  1  0  0  0
 35 37  1  0  0  0
 37 38  1  0  0  0
 11 12  2  0  0  0
 12 13  1  0  0  0
 13 14  1  0  0  0
 14 15  1  0  0  0
 14 19  1  0  0  0
 15 16  1  0  0  0
 16 17  1  0  0  0
 16 18  1  0  0  0
 17 20  1  0  0  0
 18 19  1  0  0  0
 19 21  1  0  0  0
 21 22  2  0  0  0
 21 23  1  0  0  0
 23 24  1  0  0  0
M  END
> <minimizedAffinity>
-9.54122

$$$$
