CHEMBL493046


 36 40  0  0  0  0  0  0  0  0999 V2000
  -14.2364    0.0987  -14.1209 N   0  0  0  0  0  0  0  0  0  0  0  0
  -15.2368    0.4852  -13.1336 C   0  0  0  0  0  0  0  0  0  0  0  0
  -16.6114    0.8626  -13.6997 C   0  0  0  0  0  0  0  0  0  0  0  0
  -16.5327    1.8378  -14.8521 C   0  0  0  0  0  0  0  0  0  0  0  0
  -15.3420    1.8571  -15.6046 C   0  0  0  0  0  0  0  0  0  0  0  0
  -15.2344    2.7378  -16.6953 C   0  0  0  0  0  0  0  0  0  0  0  0
  -16.2879    3.5764  -17.0491 C   0  0  0  0  0  0  0  0  0  0  0  0
  -17.4810    3.5383  -16.3278 C   0  0  0  0  0  0  0  0  0  0  0  0
  -17.6220    2.6724  -15.2327 C   0  0  0  0  0  0  0  0  0  0  0  0
  -14.1778    0.9266  -15.3224 C   0  0  0  0  0  0  0  0  0  0  0  0
  -18.9627    2.5452  -14.5769 C   0  0  0  0  0  0  0  0  0  0  0  0
  -19.2677    3.3900  -13.7369 O   0  0  0  0  0  0  0  0  0  0  0  0
  -19.7554    1.4608  -14.9407 N   0  0  0  0  0  0  0  0  0  0  0  0
  -19.4034    0.8413  -15.6586 H   0  0  0  0  0  0  0  0  0  0  0  0
  -21.0352    1.1384  -14.4166 C   0  0  0  0  0  0  0  0  0  0  0  0
  -21.9829    2.0951  -14.0405 C   0  0  0  0  0  0  0  0  0  0  0  0
  -23.2347    1.7156  -13.5414 C   0  0  0  0  0  0  0  0  0  0  0  0
  -23.5464    0.3691  -13.4064 C   0  0  0  0  0  0  0  0  0  0  0  0
  -25.0874   -0.0945  -12.7954 Cl  0  0  0  0  0  0  0  0  0  0  0  0
  -22.6167   -0.6007  -13.7661 C   0  0  0  0  0  0  0  0  0  0  0  0
  -21.3647   -0.2164  -14.2727 C   0  0  0  0  0  0  0  0  0  0  0  0
  -14.0612   -1.3441  -14.3268 C   0  0  0  0  0  0  0  0  0  0  0  0
  -13.9154   -4.4385  -10.0008 C   0  0  0  0  0  0  0  0  0  0  0  0
  -12.6246   -3.9895  -10.3039 C   0  0  0  0  0  0  0  0  0  0  0  0
  -12.3464   -3.2006  -11.4066 C   0  0  0  0  0  0  0  0  0  0  0  0
  -11.0678   -2.8277  -11.5725 N   0  0  0  0  0  0  0  0  0  0  0  0
  -10.7705   -2.0372  -12.6167 C   0  0  0  0  0  0  0  0  0  0  0  0
  -11.7129   -1.5710  -13.5114 C   0  0  0  0  0  0  0  0  0  0  0  0
  -13.0575   -1.9389  -13.3475 C   0  0  0  0  0  0  0  0  0  0  0  0
  -13.3905   -2.8218  -12.2824 C   0  0  0  0  0  0  0  0  0  0  0  0
  -14.6756   -3.3553  -12.0264 C   0  0  0  0  0  0  0  0  0  0  0  0
  -14.9464   -4.1467  -10.8983 C   0  0  0  0  0  0  0  0  0  0  0  0
  -13.0815   -5.3591   -7.9873 C   0  0  0  0  0  0  0  0  0  0  0  0
  -14.1795   -5.2011   -8.8902 O   0  0  0  0  0  0  0  0  0  0  0  0
  -16.2327   -4.6112  -10.8582 O   0  0  0  0  0  0  0  0  0  0  0  0
  -16.7180   -5.3206  -11.9899 C   0  0  0  0  0  0  0  0  0  0  0  0
 33 34  1  0  0  0
 34 23  1  0  0  0
 23 24  1  0  0  0
 23 32  2  0  0  0
 24 25  2  0  0  0
 25 26  1  0  0  0
 25 30  1  0  0  0
 26 27  2  0  0  0
 27 28  1  0  0  0
 28 29  2  0  0  0
 29 22  1  0  0  0
 29 30  1  0  0  0
 22  1  1  0  0  0
  1  2  1  0  0  0
  1 10  1  0  0  0
  2  3  1  0  0  0
  3  4  1  0  0  0
  4  5  1  0  0  0
  4  9  2  0  0  0
  5  6  2  0  0  0
  5 10  1  0  0  0
  6  7  1  0  0  0
  7  8  2  0  0  0
  8  9  1  0  0  0
  9 11  1  0  0  0
 11 12  2  0  0  0
 11 13  1  0  0  0
 13 15  1  0  0  0
 13 14  1  0  0  0
 15 16  1  0  0  0
 15 21  2  0  0  0
 16 17  2  0  0  0
 17 18  1  0  0  0
 18 19  1  0  0  0
 18 20  2  0  0  0
 20 21  1  0  0  0
 30 31  2  0  0  0
 31 32  1  0  0  0
 32 35  1  0  0  0
 35 36  1  0  0  0
M  END
> <minimizedAffinity>
-9.24433

$$$$
