CHEMBL3656064


 50 53  0  0  0  0  0  0  0  0999 V2000
  -20.2553    2.2125  -14.8520 C   0  0  0  0  0  0  0  0  0  0  0  0
  -20.7421    0.9109  -14.8813 C   0  0  0  0  0  0  0  0  0  0  0  0
  -21.9906    0.6427  -14.3283 C   0  0  0  0  0  0  0  0  0  0  0  0
  -22.7688    1.7027  -13.8828 C   0  0  0  0  0  0  0  0  0  0  0  0
  -22.2253    2.9793  -13.9412 C   0  0  0  0  0  0  0  0  0  0  0  0
  -20.9778    3.2599  -14.3930 N   0  0  0  0  0  0  0  0  0  0  0  0
  -16.6524    2.4033  -15.8012 C   0  0  0  0  0  0  0  0  0  0  0  0
  -17.0285    3.7309  -15.6887 C   0  0  0  0  0  0  0  0  0  0  0  0
  -18.3683    3.7793  -15.3650 N   0  0  0  0  0  0  0  0  0  0  0  0
  -18.8801    2.5062  -15.2519 C   0  0  0  0  0  0  0  0  0  0  0  0
  -17.8303    1.6500  -15.5285 C   0  0  0  0  0  0  0  0  0  0  0  0
  -18.9178    4.6146  -15.1963 H   0  0  0  0  0  0  0  0  0  0  0  0
  -14.8039    1.0027  -15.1098 N   0  0  0  0  0  0  0  0  0  0  0  0
  -15.3543    1.7984  -16.0867 C   0  0  0  0  0  0  0  0  0  0  0  0
  -14.7811    1.9926  -17.1558 O   0  0  0  0  0  0  0  0  0  0  0  0
  -15.2396    0.9548  -14.1984 H   0  0  0  0  0  0  0  0  0  0  0  0
  -13.4836    0.4129  -15.3007 C   0  0  0  0  0  0  0  0  0  0  0  0
  -14.6178   -1.4351  -14.1595 N   0  0  0  0  0  0  0  0  0  0  0  0
  -13.5747   -1.0878  -14.9882 C   0  0  0  0  0  0  0  0  0  0  0  0
  -12.7561   -1.8973  -15.4246 O   0  0  0  0  0  0  0  0  0  0  0  0
  -15.1401   -0.7039  -13.6864 H   0  0  0  0  0  0  0  0  0  0  0  0
  -15.8217   -2.9179  -12.6158 C   0  0  0  0  0  0  0  0  0  0  0  0
  -14.8763   -2.8136  -13.7966 C   0  0  0  0  0  0  0  0  0  0  0  0
  -12.4430    1.0875  -14.3917 C   0  0  0  0  0  0  0  0  0  0  0  0
  -13.0949    1.7848  -13.2024 C   0  0  0  0  0  0  0  0  0  0  0  0
  -12.1481    2.7840  -12.5951 C   0  0  0  0  0  0  0  0  0  0  0  0
  -11.1845    3.2498  -13.1759 O   0  0  0  0  0  0  0  0  0  0  0  0
  -12.4846    3.1408  -11.3344 O   0  0  0  0  0  0  0  0  0  0  0  0
  -13.2894    2.7007  -10.9964 H   0  0  0  0  0  0  0  0  0  0  0  0
  -22.5175   -0.6309  -14.2232 O   0  0  0  0  0  0  0  0  0  0  0  0
  -23.6596   -0.8261  -13.4685 C   0  0  0  0  0  0  0  0  0  0  0  0
  -23.7363   -0.5553  -12.1019 C   0  0  0  0  0  0  0  0  0  0  0  0
  -24.8944   -0.8537  -11.3822 C   0  0  0  0  0  0  0  0  0  0  0  0
  -26.0230   -1.3746  -12.0147 C   0  0  0  0  0  0  0  0  0  0  0  0
  -25.9704   -1.5402  -13.4051 C   0  0  0  0  0  0  0  0  0  0  0  0
  -27.0544   -1.9935  -14.0570 F   0  0  0  0  0  0  0  0  0  0  0  0
  -24.8020   -1.2790  -14.1286 C   0  0  0  0  0  0  0  0  0  0  0  0
  -27.1968   -1.7512  -11.3043 N   0  0  0  0  0  0  0  0  0  0  0  0
  -27.2513   -2.0135   -9.9429 C   0  0  0  0  0  0  0  0  0  0  0  0
  -26.3000   -1.9192   -9.1743 O   0  0  0  0  0  0  0  0  0  0  0  0
  -28.5008   -2.4575   -9.5330 N   0  0  0  0  0  0  0  0  0  0  0  0
  -28.0216   -1.9269  -11.8626 H   0  0  0  0  0  0  0  0  0  0  0  0
  -28.9903   -3.0206  -10.2121 H   0  0  0  0  0  0  0  0  0  0  0  0
  -28.7253   -2.7929   -8.1728 C   0  0  0  0  0  0  0  0  0  0  0  0
  -29.2741   -4.0393   -7.8726 C   0  0  0  0  0  0  0  0  0  0  0  0
  -29.4360   -4.4275   -6.5410 C   0  0  0  0  0  0  0  0  0  0  0  0
  -29.1060   -3.5516   -5.5053 C   0  0  0  0  0  0  0  0  0  0  0  0
  -28.5970   -2.2809   -5.7900 C   0  0  0  0  0  0  0  0  0  0  0  0
  -28.2865   -1.3126   -4.6857 C   0  0  0  0  0  0  0  0  0  0  0  0
  -28.3926   -1.9157   -7.1299 C   0  0  0  0  0  0  0  0  0  0  0  0
 22 23  1  0  0  0
 23 18  1  0  0  0
 18 19  1  0  0  0
 18 21  1  0  0  0
 19 20  2  0  0  0
 17 13  1  0  0  0
 17 24  1  0  0  0
 17 19  1  0  0  0
 24 25  1  0  0  0
 25 26  1  0  0  0
 26 27  2  0  0  0
 26 28  1  0  0  0
 28 29  1  0  0  0
 13 14  1  0  0  0
 13 16  1  0  0  0
 14 15  2  0  0  0
 14  7  1  0  0  0
  7  8  2  0  0  0
  7 11  1  0  0  0
  8  9  1  0  0  0
  9 10  1  0  0  0
  9 12  1  0  0  0
 10  1  1  0  0  0
 10 11  2  0  0  0
  1  2  1  0  0  0
  1  6  2  0  0  0
  2  3  2  0  0  0
  3 30  1  0  0  0
  3  4  1  0  0  0
 30 31  1  0  0  0
 31 32  1  0  0  0
 31 37  2  0  0  0
 32 33  2  0  0  0
 33 34  1  0  0  0
 34 38  1  0  0  0
 34 35  2  0  0  0
 38 39  1  0  0  0
 38 42  1  0  0  0
 39 40  2  0  0  0
 39 41  1  0  0  0
 41 44  1  0  0  0
 41 43  1  0  0  0
 44 45  1  0  0  0
 44 50  2  0  0  0
 45 46  2  0  0  0
 46 47  1  0  0  0
 47 48  2  0  0  0
 48 49  1  0  0  0
 48 50  1  0  0  0
 35 36  1  0  0  0
 35 37  1  0  0  0
  4  5  2  0  0  0
  5  6  1  0  0  0
M  END
> <minimizedAffinity>
-11.54520

$$$$
