CHEMBL465465


 36 38  0  0  0  0  0  0  0  0999 V2000
  -28.8734   -3.7478   -6.9229 C   0  0  0  0  0  0  0  0  0  0  0  0
  -29.7502   -3.8311   -5.8381 C   0  0  0  0  0  0  0  0  0  0  0  0
  -30.1668   -5.0637   -5.2968 C   0  0  0  0  0  0  0  0  0  0  0  0
  -29.7895   -6.2693   -5.9266 C   0  0  0  0  0  0  0  0  0  0  0  0
  -28.9051   -6.1719   -7.0217 C   0  0  0  0  0  0  0  0  0  0  0  0
  -28.4897   -7.2945   -7.6363 F   0  0  0  0  0  0  0  0  0  0  0  0
  -28.4548   -4.9401   -7.5069 C   0  0  0  0  0  0  0  0  0  0  0  0
  -27.6145   -4.9115   -8.5507 F   0  0  0  0  0  0  0  0  0  0  0  0
  -30.8286   -4.9913   -3.9658 C   0  0  0  0  0  0  0  0  0  0  0  0
  -31.6968   -5.7227   -3.5239 O   0  0  0  0  0  0  0  0  0  0  0  0
  -30.2457   -4.0723   -3.1662 O   0  0  0  0  0  0  0  0  0  0  0  0
  -30.5956   -4.2713   -2.2726 H   0  0  0  0  0  0  0  0  0  0  0  0
  -30.2287   -7.5626   -5.5541 N   0  0  0  0  0  0  0  0  0  0  0  0
  -31.0463   -7.8756   -6.0782 H   0  0  0  0  0  0  0  0  0  0  0  0
  -29.4872   -8.6258   -4.9993 C   0  0  0  0  0  0  0  0  0  0  0  0
  -28.7631   -8.4734   -3.8107 C   0  0  0  0  0  0  0  0  0  0  0  0
  -27.9227   -9.4911   -3.3524 C   0  0  0  0  0  0  0  0  0  0  0  0
  -27.8252  -10.6861   -4.0659 C   0  0  0  0  0  0  0  0  0  0  0  0
  -26.4887  -12.1482   -3.4400 I   0  0  0  0  0  0  0  0  0  0  0  0
  -28.5995  -10.8920   -5.2043 C   0  0  0  0  0  0  0  0  0  0  0  0
  -29.4258   -9.8653   -5.6543 C   0  0  0  0  0  0  0  0  0  0  0  0
  -30.1566  -10.0623   -6.7638 F   0  0  0  0  0  0  0  0  0  0  0  0
  -28.4025   -2.3951   -7.3911 C   0  0  0  0  0  0  0  0  0  0  0  0
  -27.5218   -2.5259   -8.5564 N   0  0  0  0  0  0  0  0  0  0  0  0
  -26.6326   -2.0624   -8.3846 H   0  0  0  0  0  0  0  0  0  0  0  0
  -28.1132   -1.9200   -9.7505 C   0  0  0  0  0  0  0  0  0  0  0  0
  -25.0777   -1.0926  -12.7073 C   0  0  0  0  0  0  0  0  0  0  0  0
  -24.7756   -0.9615  -11.3503 C   0  0  0  0  0  0  0  0  0  0  0  0
  -25.7594   -1.2392  -10.3979 C   0  0  0  0  0  0  0  0  0  0  0  0
  -27.0501   -1.6337  -10.7908 C   0  0  0  0  0  0  0  0  0  0  0  0
  -27.3352   -1.7529  -12.1607 C   0  0  0  0  0  0  0  0  0  0  0  0
  -26.3559   -1.4792  -13.1192 C   0  0  0  0  0  0  0  0  0  0  0  0
  -23.3655    0.9553  -13.5071 C   0  0  0  0  0  0  0  0  0  0  0  0
  -23.8423   -0.7030  -13.9238 S   0  0  0  0  0  0  0  0  0  0  0  0
  -24.4928   -0.6712  -15.2188 O   0  0  0  0  0  0  0  0  0  0  0  0
  -22.7025   -1.5676  -13.6847 O   0  0  0  0  0  0  0  0  0  0  0  0
 33 34  1  0  0  0
 34 35  2  0  0  0
 34 36  2  0  0  0
 34 27  1  0  0  0
 27 28  1  0  0  0
 27 32  2  0  0  0
 28 29  2  0  0  0
 29 30  1  0  0  0
 30 26  1  0  0  0
 30 31  2  0  0  0
 26 24  1  0  0  0
 24 23  1  0  0  0
 24 25  1  0  0  0
 23  1  1  0  0  0
  1  2  1  0  0  0
  1  7  2  0  0  0
  2  3  2  0  0  0
  3  9  1  0  0  0
  3  4  1  0  0  0
  9 10  2  0  0  0
  9 11  1  0  0  0
 11 12  1  0  0  0
  4 13  1  0  0  0
  4  5  2  0  0  0
 13 15  1  0  0  0
 13 14  1  0  0  0
 15 16  1  0  0  0
 15 21  2  0  0  0
 16 17  2  0  0  0
 17 18  1  0  0  0
 18 19  1  0  0  0
 18 20  2  0  0  0
 20 21  1  0  0  0
 21 22  1  0  0  0
  5  6  1  0  0  0
  5  7  1  0  0  0
  7  8  1  0  0  0
 31 32  1  0  0  0
M  END
> <minimizedAffinity>
-8.69961

$$$$
