CHEMBL3671495


 36 38  0  0  0  0  0  0  0  0999 V2000
  -29.7410   -5.2200   -7.0853 C   0  0  0  0  0  0  0  0  0  0  0  0
  -29.1200   -4.3789   -8.0100 C   0  0  0  0  0  0  0  0  0  0  0  0
  -28.5606   -3.1524   -7.5949 C   0  0  0  0  0  0  0  0  0  0  0  0
  -28.0499   -2.1756   -8.4627 C   0  0  0  0  0  0  0  0  0  0  0  0
  -27.5427   -1.0167   -8.0051 N   0  0  0  0  0  0  0  0  0  0  0  0
  -27.5676   -0.8190   -6.6858 C   0  0  0  0  0  0  0  0  0  0  0  0
  -28.0739   -1.6571   -5.7787 N   0  0  0  0  0  0  0  0  0  0  0  0
  -28.5727   -2.8079   -6.2347 C   0  0  0  0  0  0  0  0  0  0  0  0
  -29.1534   -3.6856   -5.3268 C   0  0  0  0  0  0  0  0  0  0  0  0
  -29.7217   -4.9002   -5.7230 C   0  0  0  0  0  0  0  0  0  0  0  0
  -29.9654   -7.5395   -7.8312 C   0  0  0  0  0  0  0  0  0  0  0  0
  -30.6930   -8.5243   -7.9111 O   0  0  0  0  0  0  0  0  0  0  0  0
  -30.5006   -6.2983   -7.5753 N   0  0  0  0  0  0  0  0  0  0  0  0
  -31.4208   -6.4206   -7.1634 H   0  0  0  0  0  0  0  0  0  0  0  0
  -27.9555   -8.5941   -8.7254 C   0  0  0  0  0  0  0  0  0  0  0  0
  -28.4870   -7.6343   -7.9591 C   0  0  0  0  0  0  0  0  0  0  0  0
  -28.1271   -2.3642   -9.8686 N   0  0  0  0  0  0  0  0  0  0  0  0
  -28.4384   -3.3072  -10.0873 H   0  0  0  0  0  0  0  0  0  0  0  0
  -27.1389   -1.9109  -10.7752 C   0  0  0  0  0  0  0  0  0  0  0  0
  -25.8517   -1.5779  -10.3299 C   0  0  0  0  0  0  0  0  0  0  0  0
  -24.8457   -1.2323  -11.2349 C   0  0  0  0  0  0  0  0  0  0  0  0
  -25.1364   -1.1922  -12.5979 C   0  0  0  0  0  0  0  0  0  0  0  0
  -23.7500   -0.8232  -13.8275 Br  0  0  0  0  0  0  0  0  0  0  0  0
  -26.4262   -1.4458  -13.0572 C   0  0  0  0  0  0  0  0  0  0  0  0
  -27.4165   -1.7905  -12.1420 C   0  0  0  0  0  0  0  0  0  0  0  0
  -28.6559   -2.0509  -12.5888 F   0  0  0  0  0  0  0  0  0  0  0  0
  -30.2638   -5.6384   -4.7002 O   0  0  0  0  0  0  0  0  0  0  0  0
  -29.3176   -6.2193   -3.7971 C   0  0  0  0  0  0  0  0  0  0  0  0
  -28.9720   -7.6432   -4.2365 C   0  0  0  0  0  0  0  0  0  0  0  0
  -27.5543   -7.9292   -4.0859 N   0  0  0  0  0  0  0  0  0  0  0  0
  -26.9837   -9.0705   -4.6320 C   0  0  0  0  0  0  0  0  0  0  0  0
  -27.6142   -9.8390   -5.3563 O   0  0  0  0  0  0  0  0  0  0  0  0
  -27.0264   -7.4435   -3.3656 H   0  0  0  0  0  0  0  0  0  0  0  0
  -25.5183   -9.2957   -4.2482 C   0  0  0  0  0  0  0  0  0  0  0  0
  -24.7151   -9.3901   -5.3506 F   0  0  0  0  0  0  0  0  0  0  0  0
  -25.0160   -8.2687   -3.5084 F   0  0  0  0  0  0  0  0  0  0  0  0
 15 16  2  0  0  0
 16 11  1  0  0  0
 11 12  2  0  0  0
 11 13  1  0  0  0
 13  1  1  0  0  0
 13 14  1  0  0  0
  1  2  1  0  0  0
  1 10  2  0  0  0
  2  3  2  0  0  0
  3  4  1  0  0  0
  3  8  1  0  0  0
  4 17  1  0  0  0
  4  5  2  0  0  0
 17 19  1  0  0  0
 17 18  1  0  0  0
 19 20  1  0  0  0
 19 25  2  0  0  0
 20 21  2  0  0  0
 21 22  1  0  0  0
 22 23  1  0  0  0
 22 24  2  0  0  0
 24 25  1  0  0  0
 25 26  1  0  0  0
  5  6  1  0  0  0
  6  7  2  0  0  0
  7  8  1  0  0  0
  8  9  2  0  0  0
  9 10  1  0  0  0
 10 27  1  0  0  0
 27 28  1  0  0  0
 28 29  1  0  0  0
 29 30  1  0  0  0
 30 31  1  0  0  0
 30 33  1  0  0  0
 31 32  2  0  0  0
 31 34  1  0  0  0
 34 35  1  0  0  0
 34 36  1  0  0  0
M  END
> <minimizedAffinity>
-8.81884

$$$$
