CHEMBL3690488


 37 40  0  0  0  0  0  0  0  0999 V2000
  -29.9324   -3.4216   -5.1228 C   0  0  0  0  0  0  0  0  0  0  0  0
  -30.4656   -3.6494   -3.8633 C   0  0  0  0  0  0  0  0  0  0  0  0
  -30.9700   -4.9193   -3.7319 N   0  0  0  0  0  0  0  0  0  0  0  0
  -30.7465   -5.5028   -4.8881 C   0  0  0  0  0  0  0  0  0  0  0  0
  -31.0454   -6.8257   -5.3406 C   0  0  0  0  0  0  0  0  0  0  0  0
  -30.7299   -7.1852   -6.6047 C   0  0  0  0  0  0  0  0  0  0  0  0
  -30.0292   -6.2754   -7.4949 C   0  0  0  0  0  0  0  0  0  0  0  0
  -29.7089   -5.0507   -7.0562 C   0  0  0  0  0  0  0  0  0  0  0  0
  -30.0922   -4.6433   -5.7743 N   0  0  0  0  0  0  0  0  0  0  0  0
  -31.0046   -8.5744   -7.0679 C   0  0  0  0  0  0  0  0  0  0  0  0
  -32.4092   -9.0052   -6.8927 C   0  0  0  0  0  0  0  0  0  0  0  0
  -32.7541  -10.1619   -7.4567 C   0  0  0  0  0  0  0  0  0  0  0  0
  -31.7629  -10.9762   -8.1862 C   0  0  0  0  0  0  0  0  0  0  0  0
  -32.1338  -12.0091   -8.7370 O   0  0  0  0  0  0  0  0  0  0  0  0
  -30.4547  -10.5013   -8.1755 N   0  0  0  0  0  0  0  0  0  0  0  0
  -30.0821   -9.2845   -7.6361 N   0  0  0  0  0  0  0  0  0  0  0  0
  -29.4322  -11.3064   -8.8458 C   0  0  0  0  0  0  0  0  0  0  0  0
  -28.8970  -10.7249  -10.1535 C   0  0  0  0  0  0  0  0  0  0  0  0
  -29.6949   -9.6234  -10.5830 O   0  0  0  0  0  0  0  0  0  0  0  0
  -30.6011   -9.9948  -10.6267 H   0  0  0  0  0  0  0  0  0  0  0  0
  -27.8561   -1.1763   -7.3731 C   0  0  0  0  0  0  0  0  0  0  0  0
  -28.2563    0.0787   -6.9175 C   0  0  0  0  0  0  0  0  0  0  0  0
  -29.0972    0.1943   -5.8151 C   0  0  0  0  0  0  0  0  0  0  0  0
  -29.5712   -0.9487   -5.1789 C   0  0  0  0  0  0  0  0  0  0  0  0
  -29.2883   -2.2244   -5.6840 C   0  0  0  0  0  0  0  0  0  0  0  0
  -28.3886   -2.3254   -6.7591 C   0  0  0  0  0  0  0  0  0  0  0  0
  -28.3255   -1.6738  -10.2697 O   0  0  0  0  0  0  0  0  0  0  0  0
  -27.2203   -1.5779   -9.7547 C   0  0  0  0  0  0  0  0  0  0  0  0
  -26.0712   -1.6658  -10.5132 N   0  0  0  0  0  0  0  0  0  0  0  0
  -26.9318   -1.3577   -8.4257 N   0  0  0  0  0  0  0  0  0  0  0  0
  -25.2528   -2.0107  -10.0324 H   0  0  0  0  0  0  0  0  0  0  0  0
  -25.9578   -1.2370   -8.1942 H   0  0  0  0  0  0  0  0  0  0  0  0
  -26.1896   -2.0383  -11.9284 C   0  0  0  0  0  0  0  0  0  0  0  0
  -25.0443   -1.5489  -12.8257 C   0  0  0  0  0  0  0  0  0  0  0  0
  -23.9016   -2.2416  -12.6068 F   0  0  0  0  0  0  0  0  0  0  0  0
  -25.3430   -1.6339  -14.1374 F   0  0  0  0  0  0  0  0  0  0  0  0
  -24.7684   -0.2489  -12.5542 F   0  0  0  0  0  0  0  0  0  0  0  0
 27 28  2  0  0  0
 28 29  1  0  0  0
 28 30  1  0  0  0
 29 33  1  0  0  0
 29 31  1  0  0  0
 33 34  1  0  0  0
 34 35  1  0  0  0
 34 36  1  0  0  0
 34 37  1  0  0  0
 30 21  1  0  0  0
 30 32  1  0  0  0
 21 22  1  0  0  0
 21 26  2  0  0  0
 22 23  2  0  0  0
 23 24  1  0  0  0
 24 25  2  0  0  0
 25  1  1  0  0  0
 25 26  1  0  0  0
  1  2  2  0  0  0
  1  9  1  0  0  0
  2  3  1  0  0  0
  3  4  2  0  0  0
  4  5  1  0  0  0
  4  9  1  0  0  0
  5  6  2  0  0  0
  6 10  1  0  0  0
  6  7  1  0  0  0
 10 11  1  0  0  0
 10 16  2  0  0  0
 11 12  2  0  0  0
 12 13  1  0  0  0
 13 14  2  0  0  0
 13 15  1  0  0  0
 15 17  1  0  0  0
 15 16  1  0  0  0
 17 18  1  0  0  0
 18 19  1  0  0  0
 19 20  1  0  0  0
  7  8  2  0  0  0
  8  9  1  0  0  0
M  END
> <minimizedAffinity>
-9.69644

$$$$
