CHEMBL4071997


 29 32  0  0  0  0  0  0  0  0999 V2000
  -18.5825    2.4257  -15.2193 C   0  0  0  0  0  0  0  0  0  0  0  0
  -19.1515    1.1639  -15.3934 C   0  0  0  0  0  0  0  0  0  0  0  0
  -20.4358    0.8642  -14.9332 C   0  0  0  0  0  0  0  0  0  0  0  0
  -21.2474    1.8469  -14.3729 C   0  0  0  0  0  0  0  0  0  0  0  0
  -20.7525    3.1518  -14.3152 C   0  0  0  0  0  0  0  0  0  0  0  0
  -19.4291    3.4295  -14.7091 C   0  0  0  0  0  0  0  0  0  0  0  0
  -16.6753    0.3312  -13.0259 C   0  0  0  0  0  0  0  0  0  0  0  0
  -15.7784    1.0486  -13.9727 C   0  0  0  0  0  0  0  0  0  0  0  0
  -14.4636    0.7854  -13.8796 N   0  0  0  0  0  0  0  0  0  0  0  0
  -13.9131    1.5842  -14.8010 N   0  0  0  0  0  0  0  0  0  0  0  0
  -14.8077    2.3357  -15.4939 C   0  0  0  0  0  0  0  0  0  0  0  0
  -14.4780    3.2126  -16.4626 N   0  0  0  0  0  0  0  0  0  0  0  0
  -15.5497    3.8271  -16.9960 C   0  0  0  0  0  0  0  0  0  0  0  0
  -16.8669    3.6088  -16.6217 C   0  0  0  0  0  0  0  0  0  0  0  0
  -17.1812    2.6822  -15.6036 C   0  0  0  0  0  0  0  0  0  0  0  0
  -16.0719    2.0131  -15.0040 C   0  0  0  0  0  0  0  0  0  0  0  0
  -12.9068    1.5763  -14.9240 H   0  0  0  0  0  0  0  0  0  0  0  0
  -22.5455    1.5712  -13.8711 N   0  0  0  0  0  0  0  0  0  0  0  0
  -22.8488    0.5458  -12.9965 C   0  0  0  0  0  0  0  0  0  0  0  0
  -22.0503   -0.2539  -12.5288 O   0  0  0  0  0  0  0  0  0  0  0  0
  -24.1797    0.5147  -12.6516 N   0  0  0  0  0  0  0  0  0  0  0  0
  -23.2430    2.2916  -13.9806 H   0  0  0  0  0  0  0  0  0  0  0  0
  -24.8374    0.8317  -13.3456 H   0  0  0  0  0  0  0  0  0  0  0  0
  -24.6082   -0.5721  -11.7981 C   0  0  0  0  0  0  0  0  0  0  0  0
  -25.8400   -1.1950  -12.3540 C   0  0  0  0  0  0  0  0  0  0  0  0
  -26.0693   -1.5928  -13.6574 C   0  0  0  0  0  0  0  0  0  0  0  0
  -27.3980   -2.0634  -13.8540 C   0  0  0  0  0  0  0  0  0  0  0  0
  -28.1353   -2.0196  -12.6922 C   0  0  0  0  0  0  0  0  0  0  0  0
  -27.2227   -1.4268  -11.3725 S   0  0  0  0  0  0  0  0  0  0  0  0
  7  8  1  0  0  0
  8  9  2  0  0  0
  8 16  1  0  0  0
  9 10  1  0  0  0
 10 11  1  0  0  0
 10 17  1  0  0  0
 11 12  1  0  0  0
 11 16  2  0  0  0
 12 13  2  0  0  0
 13 14  1  0  0  0
 14 15  2  0  0  0
 15  1  1  0  0  0
 15 16  1  0  0  0
  1  2  1  0  0  0
  1  6  2  0  0  0
  2  3  2  0  0  0
  3  4  1  0  0  0
  4 18  1  0  0  0
  4  5  2  0  0  0
 18 19  1  0  0  0
 18 22  1  0  0  0
 19 20  2  0  0  0
 19 21  1  0  0  0
 21 24  1  0  0  0
 21 23  1  0  0  0
 24 25  1  0  0  0
 25 26  2  0  0  0
 25 29  1  0  0  0
 26 27  1  0  0  0
 27 28  2  0  0  0
 28 29  1  0  0  0
  5  6  1  0  0  0
M  END
> <minimizedAffinity>
-8.96834

$$$$
