CHEMBL1940855


 22 24  0  0  0  0  0  0  0  0999 V2000
  -21.5304    0.2293  -15.0076 C   0  0  0  0  0  0  0  0  0  0  0  0
  -22.5274   -0.0929  -13.9337 C   0  0  0  0  0  0  0  0  0  0  0  0
  -22.2190    0.0615  -12.5819 C   0  0  0  0  0  0  0  0  0  0  0  0
  -23.1700   -0.2510  -11.6074 C   0  0  0  0  0  0  0  0  0  0  0  0
  -24.4372   -0.7348  -11.9785 C   0  0  0  0  0  0  0  0  0  0  0  0
  -25.4154   -1.0939  -11.0316 C   0  0  0  0  0  0  0  0  0  0  0  0
  -26.6519   -1.6140  -11.4338 C   0  0  0  0  0  0  0  0  0  0  0  0
  -26.8332   -1.7447  -12.8131 C   0  0  0  0  0  0  0  0  0  0  0  0
  -28.2150   -2.4741  -13.5442 Cl  0  0  0  0  0  0  0  0  0  0  0  0
  -25.9335   -1.3756  -13.7528 N   0  0  0  0  0  0  0  0  0  0  0  0
  -24.7557   -0.8905  -13.3410 C   0  0  0  0  0  0  0  0  0  0  0  0
  -23.8028   -0.5540  -14.2903 C   0  0  0  0  0  0  0  0  0  0  0  0
  -27.5910   -2.0217  -10.3705 C   0  0  0  0  0  0  0  0  0  0  0  0
  -27.2721   -2.1624   -9.0750 C   0  0  0  0  0  0  0  0  0  0  0  0
  -28.2712   -2.6278   -8.0626 C   0  0  0  0  0  0  0  0  0  0  0  0
  -29.1269   -3.4484   -8.4007 O   0  0  0  0  0  0  0  0  0  0  0  0
  -28.1801   -2.0474   -6.7313 C   0  0  0  0  0  0  0  0  0  0  0  0
  -27.9818   -0.3427   -6.5961 S   0  0  0  0  0  0  0  0  0  0  0  0
  -27.9484   -0.4065   -4.8900 C   0  0  0  0  0  0  0  0  0  0  0  0
  -28.1018   -1.6913   -4.4225 C   0  0  0  0  0  0  0  0  0  0  0  0
  -28.2476   -2.6370   -5.4790 C   0  0  0  0  0  0  0  0  0  0  0  0
  -28.5222   -4.2896   -5.1197 Cl  0  0  0  0  0  0  0  0  0  0  0  0
  1  2  1  0  0  0
  2  3  1  0  0  0
  2 12  2  0  0  0
  3  4  2  0  0  0
  4  5  1  0  0  0
  5  6  1  0  0  0
  5 11  2  0  0  0
  6  7  2  0  0  0
  7 13  1  0  0  0
  7  8  1  0  0  0
 13 14  2  0  0  0
 14 15  1  0  0  0
 15 16  2  0  0  0
 15 17  1  0  0  0
 17 18  1  0  0  0
 17 21  2  0  0  0
 18 19  1  0  0  0
 19 20  2  0  0  0
 20 21  1  0  0  0
 21 22  1  0  0  0
  8  9  1  0  0  0
  8 10  2  0  0  0
 10 11  1  0  0  0
 11 12  1  0  0  0
M  END
> <minimizedAffinity>
-9.25985

$$$$
