CHEMBL2430265


 34 37  0  0  0  0  0  0  0  0999 V2000
  -29.7771   -4.9539   -4.5143 C   0  0  0  0  0  0  0  0  0  0  0  0
  -30.3191   -6.1202   -3.9794 C   0  0  0  0  0  0  0  0  0  0  0  0
  -31.0655   -6.3711   -2.7124 C   0  0  0  0  0  0  0  0  0  0  0  0
  -30.1197   -7.1411   -4.8912 N   0  0  0  0  0  0  0  0  0  0  0  0
  -29.4871   -6.6677   -6.0145 C   0  0  0  0  0  0  0  0  0  0  0  0
  -29.2612   -5.3196   -5.7933 C   0  0  0  0  0  0  0  0  0  0  0  0
  -28.5964   -4.4052   -6.7538 C   0  0  0  0  0  0  0  0  0  0  0  0
  -28.1163   -5.0537   -8.0378 C   0  0  0  0  0  0  0  0  0  0  0  0
  -28.4084   -6.5392   -8.2663 C   0  0  0  0  0  0  0  0  0  0  0  0
  -29.1232   -7.3791   -7.2016 C   0  0  0  0  0  0  0  0  0  0  0  0
  -29.3527   -8.6942   -7.4871 C   0  0  0  0  0  0  0  0  0  0  0  0
  -30.0472   -9.7439   -6.6369 C   0  0  0  0  0  0  0  0  0  0  0  0
  -30.5335   -9.6282   -5.5266 O   0  0  0  0  0  0  0  0  0  0  0  0
  -30.0326  -10.9132   -7.3799 N   0  0  0  0  0  0  0  0  0  0  0  0
  -29.4051  -10.7383   -8.6039 C   0  0  0  0  0  0  0  0  0  0  0  0
  -29.2212  -11.7109   -9.5758 C   0  0  0  0  0  0  0  0  0  0  0  0
  -28.5602  -11.3475  -10.7514 C   0  0  0  0  0  0  0  0  0  0  0  0
  -28.1090  -10.0365  -10.9188 C   0  0  0  0  0  0  0  0  0  0  0  0
  -27.2093   -9.5376  -12.5078 Br  0  0  0  0  0  0  0  0  0  0  0  0
  -28.3089   -9.0751   -9.9232 C   0  0  0  0  0  0  0  0  0  0  0  0
  -28.9655   -9.4206   -8.7450 C   0  0  0  0  0  0  0  0  0  0  0  0
  -30.4398   -8.0995   -4.7648 H   0  0  0  0  0  0  0  0  0  0  0  0
  -30.4380  -11.7745   -7.0455 H   0  0  0  0  0  0  0  0  0  0  0  0
  -30.2579   -2.6032   -4.8036 N   0  0  0  0  0  0  0  0  0  0  0  0
  -29.7746   -3.5905   -3.9785 C   0  0  0  0  0  0  0  0  0  0  0  0
  -29.4181   -3.3479   -2.8241 O   0  0  0  0  0  0  0  0  0  0  0  0
  -30.8396   -2.8774   -5.5864 H   0  0  0  0  0  0  0  0  0  0  0  0
  -30.3886   -1.2596   -4.2857 C   0  0  0  0  0  0  0  0  0  0  0  0
  -30.4415   -0.1910   -5.3870 C   0  0  0  0  0  0  0  0  0  0  0  0
  -29.1689    0.0208   -6.1169 N   0  0  0  0  0  0  0  0  0  0  0  0
  -30.4329    2.0919   -6.8288 C   0  0  0  0  0  0  0  0  0  0  0  0
  -29.0916    1.3798   -6.6842 C   0  0  0  0  0  0  0  0  0  0  0  0
  -28.0152   -0.3378   -5.2702 C   0  0  0  0  0  0  0  0  0  0  0  0
  -27.3521    0.8039   -4.5011 C   0  0  0  0  0  0  0  0  0  0  0  0
 31 32  1  0  0  0
 32 30  1  0  0  0
 30 33  1  0  0  0
 30 29  1  0  0  0
 33 34  1  0  0  0
 29 28  1  0  0  0
 28 24  1  0  0  0
 24 25  1  0  0  0
 24 27  1  0  0  0
 25 26  2  0  0  0
 25  1  1  0  0  0
  1  2  2  0  0  0
  1  6  1  0  0  0
  2  3  1  0  0  0
  2  4  1  0  0  0
  4  5  1  0  0  0
  4 22  1  0  0  0
  5  6  2  0  0  0
  5 10  1  0  0  0
  6  7  1  0  0  0
  7  8  1  0  0  0
  8  9  1  0  0  0
  9 10  1  0  0  0
 10 11  2  0  0  0
 11 12  1  0  0  0
 11 21  1  0  0  0
 12 13  2  0  0  0
 12 14  1  0  0  0
 14 15  1  0  0  0
 14 23  1  0  0  0
 15 16  1  0  0  0
 15 21  2  0  0  0
 16 17  2  0  0  0
 17 18  1  0  0  0
 18 19  1  0  0  0
 18 20  2  0  0  0
 20 21  1  0  0  0
M  END
> <minimizedAffinity>
-4.26447

$$$$
