CHEMBL3288854


 34 37  0  0  0  0  0  0  0  0999 V2000
  -28.7685   -7.7989   -8.2310 C   0  0  0  0  0  0  0  0  0  0  0  0
  -29.3090   -6.9628   -7.1312 C   0  0  0  0  0  0  0  0  0  0  0  0
  -29.2909   -5.5994   -7.2606 N   0  0  0  0  0  0  0  0  0  0  0  0
  -29.7670   -4.9850   -6.1348 C   0  0  0  0  0  0  0  0  0  0  0  0
  -30.0827   -5.9924   -5.2264 C   0  0  0  0  0  0  0  0  0  0  0  0
  -30.7016   -5.8217   -3.8774 C   0  0  0  0  0  0  0  0  0  0  0  0
  -29.7743   -7.2391   -5.8637 C   0  0  0  0  0  0  0  0  0  0  0  0
  -28.9552   -5.1219   -8.0905 H   0  0  0  0  0  0  0  0  0  0  0  0
  -29.8798   -3.5718   -6.0552 C   0  0  0  0  0  0  0  0  0  0  0  0
  -29.0392   -2.6824   -5.5042 C   0  0  0  0  0  0  0  0  0  0  0  0
  -27.7164   -2.8439   -4.7864 C   0  0  0  0  0  0  0  0  0  0  0  0
  -27.1031   -3.8644   -4.5535 O   0  0  0  0  0  0  0  0  0  0  0  0
  -27.3255   -1.5657   -4.4339 N   0  0  0  0  0  0  0  0  0  0  0  0
  -28.2529   -0.6177   -4.8567 C   0  0  0  0  0  0  0  0  0  0  0  0
  -28.1816    0.7495   -4.6776 C   0  0  0  0  0  0  0  0  0  0  0  0
  -29.2298    1.5169   -5.1922 C   0  0  0  0  0  0  0  0  0  0  0  0
  -30.2952    0.8981   -5.8582 C   0  0  0  0  0  0  0  0  0  0  0  0
  -31.2804    1.6657   -6.3426 F   0  0  0  0  0  0  0  0  0  0  0  0
  -30.3584   -0.4786   -6.0330 C   0  0  0  0  0  0  0  0  0  0  0  0
  -29.3153   -1.2372   -5.5193 C   0  0  0  0  0  0  0  0  0  0  0  0
  -26.4767   -1.3743   -3.9317 H   0  0  0  0  0  0  0  0  0  0  0  0
  -29.9277   -8.5179   -5.3534 N   0  0  0  0  0  0  0  0  0  0  0  0
  -28.8642   -9.1835   -4.7707 C   0  0  0  0  0  0  0  0  0  0  0  0
  -27.7081   -8.7653   -4.6968 O   0  0  0  0  0  0  0  0  0  0  0  0
  -30.6566   -9.0814   -5.7687 H   0  0  0  0  0  0  0  0  0  0  0  0
  -29.2112  -10.5540   -4.2357 C   0  0  0  0  0  0  0  0  0  0  0  0
  -28.7588  -11.5897   -5.2696 C   0  0  0  0  0  0  0  0  0  0  0  0
  -29.7704  -11.9077   -6.2904 N   0  0  0  0  0  0  0  0  0  0  0  0
  -31.1411  -11.5600   -5.8665 C   0  0  0  0  0  0  0  0  0  0  0  0
  -32.1715  -11.8772   -6.9767 C   0  0  0  0  0  0  0  0  0  0  0  0
  -31.9113  -11.2213   -8.2731 N   0  0  0  0  0  0  0  0  0  0  0  0
  -32.2271   -9.7957   -8.2245 C   0  0  0  0  0  0  0  0  0  0  0  0
  -30.5044  -11.4556   -8.6571 C   0  0  0  0  0  0  0  0  0  0  0  0
  -29.4644  -11.1781   -7.5435 C   0  0  0  0  0  0  0  0  0  0  0  0
  1  2  1  0  0  0
  2  3  1  0  0  0
  2  7  2  0  0  0
  3  4  1  0  0  0
  3  8  1  0  0  0
  4  9  1  0  0  0
  4  5  2  0  0  0
  9 10  2  0  0  0
 10 11  1  0  0  0
 10 20  1  0  0  0
 11 12  2  0  0  0
 11 13  1  0  0  0
 13 14  1  0  0  0
 13 21  1  0  0  0
 14 15  1  0  0  0
 14 20  2  0  0  0
 15 16  2  0  0  0
 16 17  1  0  0  0
 17 18  1  0  0  0
 17 19  2  0  0  0
 19 20  1  0  0  0
  5  6  1  0  0  0
  5  7  1  0  0  0
  7 22  1  0  0  0
 22 23  1  0  0  0
 22 25  1  0  0  0
 23 24  2  0  0  0
 23 26  1  0  0  0
 26 27  1  0  0  0
 27 28  1  0  0  0
 28 29  1  0  0  0
 28 34  1  0  0  0
 29 30  1  0  0  0
 30 31  1  0  0  0
 31 32  1  0  0  0
 31 33  1  0  0  0
 33 34  1  0  0  0
M  END
> <minimizedAffinity>
-8.32942

$$$$
