CHEMBL3656041


 38 42  0  0  0  0  0  0  0  0999 V2000
  -29.4146   -3.7518   -4.1405 C   0  0  0  0  0  0  0  0  0  0  0  0
  -30.6345   -3.5481   -3.5002 C   0  0  0  0  0  0  0  0  0  0  0  0
  -31.5550   -4.5811   -3.5067 C   0  0  0  0  0  0  0  0  0  0  0  0
  -31.3634   -5.7545   -4.1455 N   0  0  0  0  0  0  0  0  0  0  0  0
  -30.1970   -5.8975   -4.8195 C   0  0  0  0  0  0  0  0  0  0  0  0
  -29.2015   -4.9314   -4.8410 C   0  0  0  0  0  0  0  0  0  0  0  0
  -30.0760   -7.1479   -5.5547 C   0  0  0  0  0  0  0  0  0  0  0  0
  -30.2904   -7.4605   -6.8843 C   0  0  0  0  0  0  0  0  0  0  0  0
  -30.0661   -8.8585   -7.0801 C   0  0  0  0  0  0  0  0  0  0  0  0
  -29.7616   -9.3616   -5.8308 C   0  0  0  0  0  0  0  0  0  0  0  0
  -29.7137   -8.3210   -4.9373 N   0  0  0  0  0  0  0  0  0  0  0  0
  -29.4875   -8.3789   -3.9509 H   0  0  0  0  0  0  0  0  0  0  0  0
  -30.1936   -9.5293   -8.3767 C   0  0  0  0  0  0  0  0  0  0  0  0
  -31.3078   -9.7638   -8.8418 O   0  0  0  0  0  0  0  0  0  0  0  0
  -29.0511   -9.8053   -9.1086 N   0  0  0  0  0  0  0  0  0  0  0  0
  -29.1662  -10.2836  -10.4759 C   0  0  0  0  0  0  0  0  0  0  0  0
  -27.7355  -10.5176  -10.9457 C   0  0  0  0  0  0  0  0  0  0  0  0
  -26.9128   -9.5875  -10.0641 C   0  0  0  0  0  0  0  0  0  0  0  0
  -26.9118   -8.2684  -10.6108 O   0  0  0  0  0  0  0  0  0  0  0  0
  -27.6573   -9.6133   -8.7336 C   0  0  0  0  0  0  0  0  0  0  0  0
  -27.8024   -7.8932  -10.4816 H   0  0  0  0  0  0  0  0  0  0  0  0
  -28.3943   -2.8268   -4.1853 O   0  0  0  0  0  0  0  0  0  0  0  0
  -27.9054   -0.8160   -7.2027 C   0  0  0  0  0  0  0  0  0  0  0  0
  -28.6437    0.3272   -6.8850 C   0  0  0  0  0  0  0  0  0  0  0  0
  -29.2381    0.4699   -5.6312 C   0  0  0  0  0  0  0  0  0  0  0  0
  -29.1186   -0.5427   -4.6850 C   0  0  0  0  0  0  0  0  0  0  0  0
  -28.4923   -1.7411   -5.0300 C   0  0  0  0  0  0  0  0  0  0  0  0
  -27.8618   -1.8660   -6.2759 C   0  0  0  0  0  0  0  0  0  0  0  0
  -27.5086   -1.8180   -9.4659 C   0  0  0  0  0  0  0  0  0  0  0  0
  -28.4745   -2.5744   -9.4891 O   0  0  0  0  0  0  0  0  0  0  0  0
  -27.1973   -0.9593   -8.4156 N   0  0  0  0  0  0  0  0  0  0  0  0
  -26.4397   -0.3127   -8.6005 H   0  0  0  0  0  0  0  0  0  0  0  0
  -28.1221   -1.9363  -12.6566 C   0  0  0  0  0  0  0  0  0  0  0  0
  -26.8199   -1.7705  -11.9624 C   0  0  0  0  0  0  0  0  0  0  0  0
  -25.5408   -1.6331  -12.5719 C   0  0  0  0  0  0  0  0  0  0  0  0
  -24.6307   -1.4995  -11.5514 C   0  0  0  0  0  0  0  0  0  0  0  0
  -25.2564   -1.5395  -10.3495 O   0  0  0  0  0  0  0  0  0  0  0  0
  -26.5935   -1.7162  -10.5916 C   0  0  0  0  0  0  0  0  0  0  0  0
 33 34  1  0  0  0
 34 35  1  0  0  0
 34 38  2  0  0  0
 35 36  2  0  0  0
 36 37  1  0  0  0
 37 38  1  0  0  0
 38 29  1  0  0  0
 29 30  2  0  0  0
 29 31  1  0  0  0
 31 23  1  0  0  0
 31 32  1  0  0  0
 23 24  1  0  0  0
 23 28  2  0  0  0
 24 25  2  0  0  0
 25 26  1  0  0  0
 26 27  2  0  0  0
 27 22  1  0  0  0
 27 28  1  0  0  0
 22  1  1  0  0  0
  1  2  1  0  0  0
  1  6  2  0  0  0
  2  3  2  0  0  0
  3  4  1  0  0  0
  4  5  2  0  0  0
  5  7  1  0  0  0
  5  6  1  0  0  0
  7  8  2  0  0  0
  7 11  1  0  0  0
  8  9  1  0  0  0
  9 13  1  0  0  0
  9 10  2  0  0  0
 13 14  2  0  0  0
 13 15  1  0  0  0
 15 16  1  0  0  0
 15 20  1  0  0  0
 16 17  1  0  0  0
 17 18  1  0  0  0
 18 19  1  0  0  0
 18 20  1  0  0  0
 19 21  1  0  0  0
 10 11  1  0  0  0
 11 12  1  0  0  0
M  END
> <minimizedAffinity>
-10.79182

$$$$
