CHEMBL1242663


 26 29  0  0  0  0  0  0  0  0999 V2000
  -30.5612   -8.5027   -6.7305 N   0  0  0  0  0  0  0  0  0  0  0  0
  -30.9301   -7.1988   -6.8199 N   0  0  0  0  0  0  0  0  0  0  0  0
  -30.0230   -6.5464   -6.0806 C   0  0  0  0  0  0  0  0  0  0  0  0
  -29.0063   -7.4422   -5.5909 C   0  0  0  0  0  0  0  0  0  0  0  0
  -27.8347   -7.4054   -4.8136 C   0  0  0  0  0  0  0  0  0  0  0  0
  -27.2395   -6.2990   -4.2330 N   0  0  0  0  0  0  0  0  0  0  0  0
  -27.1655   -8.5735   -4.6087 N   0  0  0  0  0  0  0  0  0  0  0  0
  -27.6403   -9.7129   -5.1574 C   0  0  0  0  0  0  0  0  0  0  0  0
  -28.7544   -9.8656   -5.8828 N   0  0  0  0  0  0  0  0  0  0  0  0
  -29.3947   -8.6986   -6.0512 C   0  0  0  0  0  0  0  0  0  0  0  0
  -27.7872   -5.4811   -4.0262 H   0  0  0  0  0  0  0  0  0  0  0  0
  -26.4788   -6.5418   -3.6125 H   0  0  0  0  0  0  0  0  0  0  0  0
  -30.1680   -5.1193   -5.8169 C   0  0  0  0  0  0  0  0  0  0  0  0
  -29.6072   -4.1971   -6.7052 C   0  0  0  0  0  0  0  0  0  0  0  0
  -29.2677   -2.9290   -6.2342 C   0  0  0  0  0  0  0  0  0  0  0  0
  -28.4425   -2.0945   -6.9891 C   0  0  0  0  0  0  0  0  0  0  0  0
  -27.6153   -1.2042   -6.3180 C   0  0  0  0  0  0  0  0  0  0  0  0
  -27.8556   -0.9254   -4.9779 C   0  0  0  0  0  0  0  0  0  0  0  0
  -28.9363   -1.5286   -4.3276 C   0  0  0  0  0  0  0  0  0  0  0  0
  -29.6035   -2.5954   -4.9124 C   0  0  0  0  0  0  0  0  0  0  0  0
  -30.4344   -3.3525   -4.1813 N   0  0  0  0  0  0  0  0  0  0  0  0
  -30.7023   -4.5980   -4.6372 C   0  0  0  0  0  0  0  0  0  0  0  0
  -31.6915   -5.4770   -3.5364 Cl  0  0  0  0  0  0  0  0  0  0  0  0
  -32.8833   -9.0665   -7.3641 C   0  0  0  0  0  0  0  0  0  0  0  0
  -31.4248   -9.5304   -7.3005 C   0  0  0  0  0  0  0  0  0  0  0  0
  -30.9274   -9.9640   -8.6832 C   0  0  0  0  0  0  0  0  0  0  0  0
 24 25  1  0  0  0
 25 26  1  0  0  0
 25  1  1  0  0  0
  1  2  1  0  0  0
  1 10  1  0  0  0
  2  3  2  0  0  0
  3 13  1  0  0  0
  3  4  1  0  0  0
 13 14  1  0  0  0
 13 22  2  0  0  0
 14 15  2  0  0  0
 15 16  1  0  0  0
 15 20  1  0  0  0
 16 17  2  0  0  0
 17 18  1  0  0  0
 18 19  2  0  0  0
 19 20  1  0  0  0
 20 21  2  0  0  0
 21 22  1  0  0  0
 22 23  1  0  0  0
  4  5  1  0  0  0
  4 10  2  0  0  0
  5  6  1  0  0  0
  5  7  2  0  0  0
  6 11  1  0  0  0
  6 12  1  0  0  0
  7  8  1  0  0  0
  8  9  2  0  0  0
  9 10  1  0  0  0
M  END
> <minimizedAffinity>
-8.80206

$$$$
