CHEMBL3628805


 24 26  0  0  0  0  0  0  0  0999 V2000
  -24.8835   -1.3324  -12.3681 C   0  0  0  0  0  0  0  0  0  0  0  0
  -24.8551   -1.3488  -10.9649 C   0  0  0  0  0  0  0  0  0  0  0  0
  -26.0035   -1.5981  -10.2162 C   0  0  0  0  0  0  0  0  0  0  0  0
  -27.2125   -1.8231  -10.8577 C   0  0  0  0  0  0  0  0  0  0  0  0
  -27.2737   -1.7448  -12.2512 C   0  0  0  0  0  0  0  0  0  0  0  0
  -26.1136   -1.5352  -13.0232 C   0  0  0  0  0  0  0  0  0  0  0  0
  -26.2488   -1.5684  -14.5210 C   0  0  0  0  0  0  0  0  0  0  0  0
  -23.2035    0.1540  -13.4284 C   0  0  0  0  0  0  0  0  0  0  0  0
  -23.5643    1.2371  -12.9831 O   0  0  0  0  0  0  0  0  0  0  0  0
  -23.7146   -1.0785  -13.1184 N   0  0  0  0  0  0  0  0  0  0  0  0
  -23.1943   -1.8573  -13.4972 H   0  0  0  0  0  0  0  0  0  0  0  0
  -22.2246    0.0231  -14.3636 O   0  0  0  0  0  0  0  0  0  0  0  0
  -20.0599    0.6979  -15.1655 C   0  0  0  0  0  0  0  0  0  0  0  0
  -21.2915    1.1174  -14.3807 C   0  0  0  0  0  0  0  0  0  0  0  0
  -28.2969   -2.0314  -10.0399 O   0  0  0  0  0  0  0  0  0  0  0  0
  -28.1396   -1.8571   -8.6709 C   0  0  0  0  0  0  0  0  0  0  0  0
  -27.8025   -0.6479   -8.1711 N   0  0  0  0  0  0  0  0  0  0  0  0
  -27.6336   -0.5436   -6.8475 C   0  0  0  0  0  0  0  0  0  0  0  0
  -27.7809   -1.5048   -5.9309 N   0  0  0  0  0  0  0  0  0  0  0  0
  -28.1654   -2.6748   -6.4675 C   0  0  0  0  0  0  0  0  0  0  0  0
  -28.4433   -4.0446   -5.4914 S   0  0  0  0  0  0  0  0  0  0  0  0
  -28.8691   -5.0010   -6.8448 C   0  0  0  0  0  0  0  0  0  0  0  0
  -28.7906   -4.2904   -8.0218 C   0  0  0  0  0  0  0  0  0  0  0  0
  -28.3756   -2.9332   -7.8145 C   0  0  0  0  0  0  0  0  0  0  0  0
 13 14  1  0  0  0
 14 12  1  0  0  0
 12  8  1  0  0  0
  8  9  2  0  0  0
  8 10  1  0  0  0
 10  1  1  0  0  0
 10 11  1  0  0  0
  1  2  1  0  0  0
  1  6  2  0  0  0
  2  3  2  0  0  0
  3  4  1  0  0  0
  4 15  1  0  0  0
  4  5  2  0  0  0
 15 16  1  0  0  0
 16 17  1  0  0  0
 16 24  2  0  0  0
 17 18  2  0  0  0
 18 19  1  0  0  0
 19 20  2  0  0  0
 20 21  1  0  0  0
 20 24  1  0  0  0
 21 22  1  0  0  0
 22 23  2  0  0  0
 23 24  1  0  0  0
  5  6  1  0  0  0
  6  7  1  0  0  0
M  END
> <minimizedAffinity>
-7.21003

$$$$
