CHEMBL3582439


 27 31  0  0  0  0  0  0  0  0999 V2000
  -15.3807   -1.0025  -13.6613 C   0  0  0  0  0  0  0  0  0  0  0  0
  -13.9830   -0.5754  -14.0164 C   0  0  0  0  0  0  0  0  0  0  0  0
  -13.7928    0.5491  -14.7083 C   0  0  0  0  0  0  0  0  0  0  0  0
  -14.9053    1.3146  -15.0939 C   0  0  0  0  0  0  0  0  0  0  0  0
  -14.9699    2.4233  -15.7960 N   0  0  0  0  0  0  0  0  0  0  0  0
  -16.3046    2.7117  -15.8568 C   0  0  0  0  0  0  0  0  0  0  0  0
  -17.0736    1.7936  -15.1599 C   0  0  0  0  0  0  0  0  0  0  0  0
  -16.1558    0.8681  -14.6951 N   0  0  0  0  0  0  0  0  0  0  0  0
  -16.4253   -0.2774  -13.9871 N   0  0  0  0  0  0  0  0  0  0  0  0
  -18.5158    1.7832  -14.9590 C   0  0  0  0  0  0  0  0  0  0  0  0
  -19.3138    0.6590  -15.1265 C   0  0  0  0  0  0  0  0  0  0  0  0
  -20.6736    0.7461  -14.8264 C   0  0  0  0  0  0  0  0  0  0  0  0
  -21.1948    1.9515  -14.3736 C   0  0  0  0  0  0  0  0  0  0  0  0
  -20.3327    3.0233  -14.2336 C   0  0  0  0  0  0  0  0  0  0  0  0
  -19.0109    2.9618  -14.5071 N   0  0  0  0  0  0  0  0  0  0  0  0
  -15.8043   -3.4867  -13.6256 C   0  0  0  0  0  0  0  0  0  0  0  0
  -16.6964   -4.1832  -12.5815 C   0  0  0  0  0  0  0  0  0  0  0  0
  -16.0863   -3.7553  -11.2547 C   0  0  0  0  0  0  0  0  0  0  0  0
  -15.5715   -2.3436  -11.5211 C   0  0  0  0  0  0  0  0  0  0  0  0
  -15.5716   -2.1900  -12.9726 N   0  0  0  0  0  0  0  0  0  0  0  0
  -12.4577   -6.9259  -12.5051 F   0  0  0  0  0  0  0  0  0  0  0  0
  -12.8631   -5.9478  -13.3257 C   0  0  0  0  0  0  0  0  0  0  0  0
  -12.1099   -5.6400  -14.4484 C   0  0  0  0  0  0  0  0  0  0  0  0
  -12.5370   -4.6221  -15.2964 C   0  0  0  0  0  0  0  0  0  0  0  0
  -13.7214   -3.9284  -15.0189 C   0  0  0  0  0  0  0  0  0  0  0  0
  -14.5069   -4.2482  -13.8947 C   0  0  0  0  0  0  0  0  0  0  0  0
  -14.0398   -5.2627  -13.0413 C   0  0  0  0  0  0  0  0  0  0  0  0
 21 22  1  0  0  0
 22 23  1  0  0  0
 22 27  2  0  0  0
 23 24  2  0  0  0
 24 25  1  0  0  0
 25 26  2  0  0  0
 26 27  1  0  0  0
 16 17  1  0  0  0
 16 20  1  0  0  0
 16 26  1  0  0  0
 17 18  1  0  0  0
 18 19  1  0  0  0
 19 20  1  0  0  0
 20  1  1  0  0  0
  1  2  1  0  0  0
  1  9  2  0  0  0
  2  3  2  0  0  0
  3  4  1  0  0  0
  4  5  2  0  0  0
  4  8  1  0  0  0
  5  6  1  0  0  0
  6  7  2  0  0  0
  7 10  1  0  0  0
  7  8  1  0  0  0
 10 11  1  0  0  0
 10 15  2  0  0  0
 11 12  2  0  0  0
 12 13  1  0  0  0
 13 14  2  0  0  0
 14 15  1  0  0  0
  8  9  1  0  0  0
M  END
> <minimizedAffinity>
-8.05489

$$$$
