CHEMBL191913


 37 41  0  0  0  0  0  0  0  0999 V2000
  -28.3679   -9.7967   -6.6958 C   0  0  0  0  0  0  0  0  0  0  0  0
  -28.5100  -10.5324   -7.7709 N   0  0  0  0  0  0  0  0  0  0  0  0
  -28.8981   -9.9744   -8.9502 C   0  0  0  0  0  0  0  0  0  0  0  0
  -29.1646   -8.7270   -9.1561 N   0  0  0  0  0  0  0  0  0  0  0  0
  -29.0372   -7.9581   -8.0682 N   0  0  0  0  0  0  0  0  0  0  0  0
  -29.3028   -6.6236   -8.0638 C   0  0  0  0  0  0  0  0  0  0  0  0
  -29.0739   -6.1445   -6.7941 C   0  0  0  0  0  0  0  0  0  0  0  0
  -28.6649   -7.2607   -5.9639 C   0  0  0  0  0  0  0  0  0  0  0  0
  -28.6443   -8.3786   -6.8207 C   0  0  0  0  0  0  0  0  0  0  0  0
  -29.2741   -4.6984   -6.4554 C   0  0  0  0  0  0  0  0  0  0  0  0
  -30.3095   -4.2073   -5.8002 N   0  0  0  0  0  0  0  0  0  0  0  0
  -30.1358   -2.8423   -5.7138 N   0  0  0  0  0  0  0  0  0  0  0  0
  -29.0012   -2.5799   -6.3225 C   0  0  0  0  0  0  0  0  0  0  0  0
  -28.3847   -3.7034   -6.8055 O   0  0  0  0  0  0  0  0  0  0  0  0
  -28.3257   -1.2736   -6.5422 C   0  0  0  0  0  0  0  0  0  0  0  0
  -28.9967   -0.0951   -5.8861 C   0  0  0  0  0  0  0  0  0  0  0  0
  -28.6908    1.3164   -6.3225 C   0  0  0  0  0  0  0  0  0  0  0  0
  -28.2213    0.8319   -4.9799 C   0  0  0  0  0  0  0  0  0  0  0  0
  -28.3951   -7.1472   -4.4743 C   0  0  0  0  0  0  0  0  0  0  0  0
  -27.3935   -6.0507   -4.1136 C   0  0  0  0  0  0  0  0  0  0  0  0
  -29.6539   -7.1075   -3.6077 C   0  0  0  0  0  0  0  0  0  0  0  0
  -27.9412  -10.4146   -5.5448 N   0  0  0  0  0  0  0  0  0  0  0  0
  -28.5109  -11.1499   -5.1589 H   0  0  0  0  0  0  0  0  0  0  0  0
  -24.2124  -10.7031   -5.3159 C   0  0  0  0  0  0  0  0  0  0  0  0
  -25.5087  -10.6757   -5.8547 C   0  0  0  0  0  0  0  0  0  0  0  0
  -26.6228  -10.4363   -5.0416 C   0  0  0  0  0  0  0  0  0  0  0  0
  -26.3924  -10.1855   -3.6769 C   0  0  0  0  0  0  0  0  0  0  0  0
  -27.4347   -9.9514   -2.8656 F   0  0  0  0  0  0  0  0  0  0  0  0
  -25.1094  -10.1765   -3.1346 C   0  0  0  0  0  0  0  0  0  0  0  0
  -24.0254  -10.4391   -3.9619 C   0  0  0  0  0  0  0  0  0  0  0  0
  -22.7963  -10.4494   -3.4232 F   0  0  0  0  0  0  0  0  0  0  0  0
  -21.9581  -10.2795   -6.1034 N   0  0  0  0  0  0  0  0  0  0  0  0
  -23.0916  -11.0524   -6.2177 C   0  0  0  0  0  0  0  0  0  0  0  0
  -23.2443  -11.9651   -7.0246 O   0  0  0  0  0  0  0  0  0  0  0  0
  -21.7430   -9.7839   -5.2437 H   0  0  0  0  0  0  0  0  0  0  0  0
  -20.4173   -9.6864   -7.7003 C   0  0  0  0  0  0  0  0  0  0  0  0
  -20.8378  -10.7385   -6.8344 O   0  0  0  0  0  0  0  0  0  0  0  0
 36 37  1  0  0  0
 37 32  1  0  0  0
 32 33  1  0  0  0
 32 35  1  0  0  0
 33 34  2  0  0  0
 33 24  1  0  0  0
 24 25  1  0  0  0
 24 30  2  0  0  0
 25 26  2  0  0  0
 26 22  1  0  0  0
 26 27  1  0  0  0
 22  1  1  0  0  0
 22 23  1  0  0  0
  1  2  2  0  0  0
  1  9  1  0  0  0
  2  3  1  0  0  0
  3  4  2  0  0  0
  4  5  1  0  0  0
  5  6  1  0  0  0
  5  9  1  0  0  0
  6  7  2  0  0  0
  7 10  1  0  0  0
  7  8  1  0  0  0
 10 11  2  0  0  0
 10 14  1  0  0  0
 11 12  1  0  0  0
 12 13  2  0  0  0
 13 15  1  0  0  0
 13 14  1  0  0  0
 15 16  1  0  0  0
 16 17  1  0  0  0
 16 18  1  0  0  0
 17 18  1  0  0  0
  8 19  1  0  0  0
  8  9  2  0  0  0
 19 20  1  0  0  0
 19 21  1  0  0  0
 27 28  1  0  0  0
 27 29  2  0  0  0
 29 30  1  0  0  0
 30 31  1  0  0  0
M  END
> <minimizedAffinity>
-8.09607

$$$$
