CHEMBL3676389


 38 40  0  0  0  0  0  0  0  0999 V2000
  -14.2246   -2.6552  -12.8694 C   0  0  0  0  0  0  0  0  0  0  0  0
  -14.5827   -1.4601  -13.4963 C   0  0  0  0  0  0  0  0  0  0  0  0
  -14.0077   -1.1039  -14.7353 C   0  0  0  0  0  0  0  0  0  0  0  0
  -14.2491    0.1131  -15.3994 C   0  0  0  0  0  0  0  0  0  0  0  0
  -13.6930    0.3978  -16.5865 N   0  0  0  0  0  0  0  0  0  0  0  0
  -12.8741   -0.5230  -17.0993 C   0  0  0  0  0  0  0  0  0  0  0  0
  -12.5624   -1.7050  -16.5470 N   0  0  0  0  0  0  0  0  0  0  0  0
  -13.1378   -1.9928  -15.3768 C   0  0  0  0  0  0  0  0  0  0  0  0
  -12.8514   -3.2116  -14.7639 C   0  0  0  0  0  0  0  0  0  0  0  0
  -13.3990   -3.5728  -13.5281 C   0  0  0  0  0  0  0  0  0  0  0  0
  -15.5486   -3.6734  -11.0924 C   0  0  0  0  0  0  0  0  0  0  0  0
  -15.5946   -4.0509   -9.9238 O   0  0  0  0  0  0  0  0  0  0  0  0
  -14.5592   -2.8133  -11.5121 N   0  0  0  0  0  0  0  0  0  0  0  0
  -13.7860   -2.8504  -10.8553 H   0  0  0  0  0  0  0  0  0  0  0  0
  -16.7623   -5.4755  -12.2051 C   0  0  0  0  0  0  0  0  0  0  0  0
  -16.5042   -4.1650  -12.1203 C   0  0  0  0  0  0  0  0  0  0  0  0
  -15.0493    1.0883  -14.7696 N   0  0  0  0  0  0  0  0  0  0  0  0
  -14.4951    1.8732  -14.4329 H   0  0  0  0  0  0  0  0  0  0  0  0
  -16.3786    1.4603  -15.0759 C   0  0  0  0  0  0  0  0  0  0  0  0
  -17.4577    0.6071  -14.8233 C   0  0  0  0  0  0  0  0  0  0  0  0
  -18.7730    1.0715  -14.9235 C   0  0  0  0  0  0  0  0  0  0  0  0
  -19.0168    2.3944  -15.2894 C   0  0  0  0  0  0  0  0  0  0  0  0
  -20.7898    3.0489  -15.2997 Br  0  0  0  0  0  0  0  0  0  0  0  0
  -17.9627    3.2457  -15.6026 C   0  0  0  0  0  0  0  0  0  0  0  0
  -16.6594    2.7728  -15.4849 C   0  0  0  0  0  0  0  0  0  0  0  0
  -15.6417    3.6104  -15.7479 F   0  0  0  0  0  0  0  0  0  0  0  0
  -13.0084   -4.8052  -13.0568 O   0  0  0  0  0  0  0  0  0  0  0  0
  -11.6039   -5.0784  -13.1517 C   0  0  0  0  0  0  0  0  0  0  0  0
  -10.8650   -4.5657  -11.9115 C   0  0  0  0  0  0  0  0  0  0  0  0
  -11.3769   -5.1723  -10.6939 N   0  0  0  0  0  0  0  0  0  0  0  0
  -11.9699   -4.4188   -9.7006 C   0  0  0  0  0  0  0  0  0  0  0  0
  -12.1584   -3.2102   -9.8087 O   0  0  0  0  0  0  0  0  0  0  0  0
  -11.2819   -6.1699  -10.5244 H   0  0  0  0  0  0  0  0  0  0  0  0
  -12.2890   -5.2176   -8.4165 C   0  0  0  0  0  0  0  0  0  0  0  0
  -11.9149   -4.4268   -7.1675 C   0  0  0  0  0  0  0  0  0  0  0  0
  -13.7161   -5.6023   -8.4001 N   0  0  0  0  0  0  0  0  0  0  0  0
  -14.2788   -4.7516   -8.4710 H   0  0  0  0  0  0  0  0  0  0  0  0
  -13.9390   -5.9889   -7.4815 H   0  0  0  0  0  0  0  0  0  0  0  0
 15 16  2  0  0  0
 16 11  1  0  0  0
 11 12  2  0  0  0
 11 13  1  0  0  0
 13  1  1  0  0  0
 13 14  1  0  0  0
  1  2  1  0  0  0
  1 10  2  0  0  0
  2  3  2  0  0  0
  3  4  1  0  0  0
  3  8  1  0  0  0
  4 17  1  0  0  0
  4  5  2  0  0  0
 17 19  1  0  0  0
 17 18  1  0  0  0
 19 20  1  0  0  0
 19 25  2  0  0  0
 20 21  2  0  0  0
 21 22  1  0  0  0
 22 23  1  0  0  0
 22 24  2  0  0  0
 24 25  1  0  0  0
 25 26  1  0  0  0
  5  6  1  0  0  0
  6  7  2  0  0  0
  7  8  1  0  0  0
  8  9  2  0  0  0
  9 10  1  0  0  0
 10 27  1  0  0  0
 27 28  1  0  0  0
 28 29  1  0  0  0
 29 30  1  0  0  0
 30 31  1  0  0  0
 30 33  1  0  0  0
 31 32  2  0  0  0
 31 34  1  0  0  0
 34 35  1  0  0  0
 34 36  1  0  0  0
 36 37  1  0  0  0
 36 38  1  0  0  0
M  END
> <minimizedAffinity>
-7.64663

$$$$
