CHEMBL196022


 20 22  0  0  0  0  0  0  0  0999 V2000
  -29.5495   -4.3834   -6.6230 C   0  0  0  0  0  0  0  0  0  0  0  0
  -30.2709   -4.0390   -5.4947 C   0  0  0  0  0  0  0  0  0  0  0  0
  -30.0500   -2.7476   -5.1494 O   0  0  0  0  0  0  0  0  0  0  0  0
  -29.1783   -2.2286   -6.0563 C   0  0  0  0  0  0  0  0  0  0  0  0
  -28.7574   -0.9587   -5.9957 N   0  0  0  0  0  0  0  0  0  0  0  0
  -27.9152   -0.6752   -6.9962 C   0  0  0  0  0  0  0  0  0  0  0  0
  -27.5094   -1.4918   -7.9830 N   0  0  0  0  0  0  0  0  0  0  0  0
  -27.9708   -2.7566   -8.0129 C   0  0  0  0  0  0  0  0  0  0  0  0
  -27.5372   -3.5283   -9.0835 N   0  0  0  0  0  0  0  0  0  0  0  0
  -28.8427   -3.1909   -6.9983 C   0  0  0  0  0  0  0  0  0  0  0  0
  -27.0914   -2.9437   -9.7820 H   0  0  0  0  0  0  0  0  0  0  0  0
  -28.2330   -4.1719   -9.4409 H   0  0  0  0  0  0  0  0  0  0  0  0
  -29.6503   -8.3704   -8.1586 C   0  0  0  0  0  0  0  0  0  0  0  0
  -28.5092   -7.5886   -8.3289 C   0  0  0  0  0  0  0  0  0  0  0  0
  -28.4844   -6.2650   -7.8659 C   0  0  0  0  0  0  0  0  0  0  0  0
  -29.6069   -5.7009   -7.2430 C   0  0  0  0  0  0  0  0  0  0  0  0
  -30.7761   -6.4632   -7.1756 C   0  0  0  0  0  0  0  0  0  0  0  0
  -30.7856   -7.7959   -7.5908 C   0  0  0  0  0  0  0  0  0  0  0  0
  -29.4933  -10.0465   -9.8338 C   0  0  0  0  0  0  0  0  0  0  0  0
  -29.7878   -9.6878   -8.4909 O   0  0  0  0  0  0  0  0  0  0  0  0
 19 20  1  0  0  0
 20 13  1  0  0  0
 13 14  1  0  0  0
 13 18  2  0  0  0
 14 15  2  0  0  0
 15 16  1  0  0  0
 16  1  1  0  0  0
 16 17  2  0  0  0
  1  2  2  0  0  0
  1 10  1  0  0  0
  2  3  1  0  0  0
  3  4  1  0  0  0
  4  5  1  0  0  0
  4 10  2  0  0  0
  5  6  2  0  0  0
  6  7  1  0  0  0
  7  8  2  0  0  0
  8  9  1  0  0  0
  8 10  1  0  0  0
  9 11  1  0  0  0
  9 12  1  0  0  0
 17 18  1  0  0  0
M  END
> <minimizedAffinity>
-7.30120

$$$$
