CHEMBL4206308


 33 35  0  0  0  0  0  0  0  0999 V2000
  -25.4128   12.0528  -14.3982 C   0  0  0  0  0  0  0  0  0  0  0  0
  -26.7608   12.3805  -14.6069 C   0  0  0  0  0  0  0  0  0  0  0  0
  -27.6190   12.6130  -13.5185 C   0  0  0  0  0  0  0  0  0  0  0  0
  -27.1395   12.5303  -12.2034 C   0  0  0  0  0  0  0  0  0  0  0  0
  -25.7873   12.2283  -12.0156 C   0  0  0  0  0  0  0  0  0  0  0  0
  -25.2918   12.1447  -10.7727 F   0  0  0  0  0  0  0  0  0  0  0  0
  -24.9304   11.9921  -13.0878 C   0  0  0  0  0  0  0  0  0  0  0  0
  -24.6268   10.6049  -16.4116 C   0  0  0  0  0  0  0  0  0  0  0  0
  -23.7981   10.4622  -17.4632 C   0  0  0  0  0  0  0  0  0  0  0  0
  -22.7473   11.4710  -17.7280 C   0  0  0  0  0  0  0  0  0  0  0  0
  -22.0012   11.3695  -18.6943 O   0  0  0  0  0  0  0  0  0  0  0  0
  -22.6779   12.5095  -16.8411 N   0  0  0  0  0  0  0  0  0  0  0  0
  -23.5233   12.6589  -15.7641 C   0  0  0  0  0  0  0  0  0  0  0  0
  -24.4938   11.7602  -15.5155 C   0  0  0  0  0  0  0  0  0  0  0  0
  -21.9656   13.2065  -17.0305 H   0  0  0  0  0  0  0  0  0  0  0  0
  -25.6523    9.7495  -16.0661 O   0  0  0  0  0  0  0  0  0  0  0  0
  -28.0025    9.7080  -16.4907 C   0  0  0  0  0  0  0  0  0  0  0  0
  -26.6240    9.4462  -17.0669 C   0  0  0  0  0  0  0  0  0  0  0  0
  -28.0537   12.6581  -11.0077 C   0  0  0  0  0  0  0  0  0  0  0  0
  -29.5236   12.4034  -11.2848 C   0  0  0  0  0  0  0  0  0  0  0  0
  -30.3727   12.5654  -10.4110 O   0  0  0  0  0  0  0  0  0  0  0  0
  -29.7797   11.9620  -12.5745 N   0  0  0  0  0  0  0  0  0  0  0  0
  -29.0083   11.5005  -13.0430 H   0  0  0  0  0  0  0  0  0  0  0  0
  -31.0775   11.6569  -13.0308 C   0  0  0  0  0  0  0  0  0  0  0  0
  -31.6014   12.4247  -14.0710 C   0  0  0  0  0  0  0  0  0  0  0  0
  -32.8467   12.1107  -14.6147 C   0  0  0  0  0  0  0  0  0  0  0  0
  -33.6021   11.0675  -14.0788 C   0  0  0  0  0  0  0  0  0  0  0  0
  -33.1178   10.3221  -12.9934 C   0  0  0  0  0  0  0  0  0  0  0  0
  -31.8412   10.6198  -12.4817 C   0  0  0  0  0  0  0  0  0  0  0  0
  -33.9470    9.2201  -12.3792 C   0  0  0  0  0  0  0  0  0  0  0  0
  -33.2574    8.4618  -11.4786 F   0  0  0  0  0  0  0  0  0  0  0  0
  -35.0379    9.6841  -11.7110 F   0  0  0  0  0  0  0  0  0  0  0  0
  -34.4204    8.3430  -13.3085 F   0  0  0  0  0  0  0  0  0  0  0  0
 17 18  1  0  0  0
 18 16  1  0  0  0
 16  8  1  0  0  0
  8  9  2  0  0  0
  8 14  1  0  0  0
  9 10  1  0  0  0
 10 11  2  0  0  0
 10 12  1  0  0  0
 12 13  1  0  0  0
 12 15  1  0  0  0
 13 14  2  0  0  0
 14  1  1  0  0  0
  1  2  1  0  0  0
  1  7  2  0  0  0
  2  3  2  0  0  0
  3  4  1  0  0  0
  4 19  1  0  0  0
  4  5  2  0  0  0
 19 20  1  0  0  0
 20 21  2  0  0  0
 20 22  1  0  0  0
 22 24  1  0  0  0
 22 23  1  0  0  0
 24 25  1  0  0  0
 24 29  2  0  0  0
 25 26  2  0  0  0
 26 27  1  0  0  0
 27 28  2  0  0  0
 28 30  1  0  0  0
 28 29  1  0  0  0
 30 31  1  0  0  0
 30 32  1  0  0  0
 30 33  1  0  0  0
  5  6  1  0  0  0
  5  7  1  0  0  0
M  END
> <minimizedAffinity>
-6.00958

$$$$
