CHEMBL215948


 41 46  0  0  0  0  0  0  0  0999 V2000
  -16.2231    2.8127  -16.2595 C   0  0  0  0  0  0  0  0  0  0  0  0
  -15.9536    1.4841  -15.8348 C   0  0  0  0  0  0  0  0  0  0  0  0
  -16.9415    0.6578  -15.2965 C   0  0  0  0  0  0  0  0  0  0  0  0
  -18.2042    1.1892  -15.1360 C   0  0  0  0  0  0  0  0  0  0  0  0
  -18.4598    2.5372  -15.5035 C   0  0  0  0  0  0  0  0  0  0  0  0
  -17.5065    3.3508  -16.0780 C   0  0  0  0  0  0  0  0  0  0  0  0
  -19.8109    2.7855  -15.1345 C   0  0  0  0  0  0  0  0  0  0  0  0
  -20.6264    3.8287  -15.0923 N   0  0  0  0  0  0  0  0  0  0  0  0
  -21.7416    3.2871  -14.5342 N   0  0  0  0  0  0  0  0  0  0  0  0
  -21.6359    1.9426  -14.2283 C   0  0  0  0  0  0  0  0  0  0  0  0
  -20.3628    1.6118  -14.6064 C   0  0  0  0  0  0  0  0  0  0  0  0
  -19.4247    0.4596  -14.5765 C   0  0  0  0  0  0  0  0  0  0  0  0
  -22.5390    3.8894  -14.3658 H   0  0  0  0  0  0  0  0  0  0  0  0
  -22.6555    1.1602  -13.6071 C   0  0  0  0  0  0  0  0  0  0  0  0
  -23.7125    1.6256  -12.8503 C   0  0  0  0  0  0  0  0  0  0  0  0
  -24.6220    0.5910  -12.4972 C   0  0  0  0  0  0  0  0  0  0  0  0
  -24.2387   -0.6363  -13.0056 C   0  0  0  0  0  0  0  0  0  0  0  0
  -22.6906   -0.5439  -13.7358 S   0  0  0  0  0  0  0  0  0  0  0  0
  -24.9588   -1.9353  -12.8913 C   0  0  0  0  0  0  0  0  0  0  0  0
  -26.3117   -1.8920  -12.3184 N   0  0  0  0  0  0  0  0  0  0  0  0
  -27.5045   -1.9187  -13.1622 C   0  0  0  0  0  0  0  0  0  0  0  0
  -26.3312   -1.9080  -10.9244 C   0  0  0  0  0  0  0  0  0  0  0  0
  -25.2861   -1.7939  -10.2858 O   0  0  0  0  0  0  0  0  0  0  0  0
  -27.5704   -2.1046  -10.3565 N   0  0  0  0  0  0  0  0  0  0  0  0
  -28.3007   -2.4234  -10.9727 H   0  0  0  0  0  0  0  0  0  0  0  0
  -27.8526   -2.1966   -8.9760 C   0  0  0  0  0  0  0  0  0  0  0  0
  -28.2072   -3.3855   -8.3368 C   0  0  0  0  0  0  0  0  0  0  0  0
  -28.5667   -3.3904   -6.9863 C   0  0  0  0  0  0  0  0  0  0  0  0
  -28.5590   -2.2041   -6.2545 C   0  0  0  0  0  0  0  0  0  0  0  0
  -29.0666   -2.2712   -4.6062 Cl  0  0  0  0  0  0  0  0  0  0  0  0
  -28.1552   -1.0169   -6.8720 C   0  0  0  0  0  0  0  0  0  0  0  0
  -28.0999    0.4910   -6.0288 Cl  0  0  0  0  0  0  0  0  0  0  0  0
  -27.7943   -1.0170   -8.2253 C   0  0  0  0  0  0  0  0  0  0  0  0
  -15.1293    3.6289  -16.9162 C   0  0  0  0  0  0  0  0  0  0  0  0
  -11.8705    7.1205  -16.7379 C   0  0  0  0  0  0  0  0  0  0  0  0
  -12.0392    5.6789  -16.5785 N   0  0  0  0  0  0  0  0  0  0  0  0
  -12.9748    5.3783  -15.4831 C   0  0  0  0  0  0  0  0  0  0  0  0
  -13.2212    3.8587  -15.3464 C   0  0  0  0  0  0  0  0  0  0  0  0
  -13.7564    3.2168  -16.5670 N   0  0  0  0  0  0  0  0  0  0  0  0
  -12.8236    3.5411  -17.6746 C   0  0  0  0  0  0  0  0  0  0  0  0
  -12.4983    5.0509  -17.8344 C   0  0  0  0  0  0  0  0  0  0  0  0
 35 36  1  0  0  0
 36 37  1  0  0  0
 36 41  1  0  0  0
 37 38  1  0  0  0
 38 39  1  0  0  0
 39 34  1  0  0  0
 39 40  1  0  0  0
 34  1  1  0  0  0
  1  2  1  0  0  0
  1  6  2  0  0  0
  2  3  2  0  0  0
  3  4  1  0  0  0
  4  5  2  0  0  0
  4 12  1  0  0  0
  5  6  1  0  0  0
  5  7  1  0  0  0
  7  8  2  0  0  0
  7 11  1  0  0  0
  8  9  1  0  0  0
  9 10  1  0  0  0
  9 13  1  0  0  0
 10 14  1  0  0  0
 10 11  2  0  0  0
 14 15  2  0  0  0
 14 18  1  0  0  0
 15 16  1  0  0  0
 16 17  2  0  0  0
 17 19  1  0  0  0
 17 18  1  0  0  0
 19 20  1  0  0  0
 20 21  1  0  0  0
 20 22  1  0  0  0
 22 23  2  0  0  0
 22 24  1  0  0  0
 24 26  1  0  0  0
 24 25  1  0  0  0
 26 27  1  0  0  0
 26 33  2  0  0  0
 27 28  2  0  0  0
 28 29  1  0  0  0
 29 30  1  0  0  0
 29 31  2  0  0  0
 31 32  1  0  0  0
 31 33  1  0  0  0
 11 12  1  0  0  0
 40 41  1  0  0  0
M  END
> <minimizedAffinity>
-11.49196

$$$$
