CHEMBL4242446


 34 37  0  0  0  0  0  0  0  0999 V2000
  -26.4539  -10.5115   -6.6979 C   0  0  0  0  0  0  0  0  0  0  0  0
  -27.1432  -10.9735   -7.7416 N   0  0  0  0  0  0  0  0  0  0  0  0
  -28.4666  -10.7382   -7.7376 C   0  0  0  0  0  0  0  0  0  0  0  0
  -29.1722  -11.4968   -9.1263 Cl  0  0  0  0  0  0  0  0  0  0  0  0
  -29.1864  -10.0601   -6.7562 C   0  0  0  0  0  0  0  0  0  0  0  0
  -28.3710   -9.7532   -5.6668 C   0  0  0  0  0  0  0  0  0  0  0  0
  -27.0246   -9.9214   -5.6496 N   0  0  0  0  0  0  0  0  0  0  0  0
  -22.1750  -10.9342   -6.9188 C   0  0  0  0  0  0  0  0  0  0  0  0
  -23.0072  -11.7449   -7.6814 C   0  0  0  0  0  0  0  0  0  0  0  0
  -24.3945  -11.6123   -7.5830 C   0  0  0  0  0  0  0  0  0  0  0  0
  -24.9940  -10.6689   -6.7274 C   0  0  0  0  0  0  0  0  0  0  0  0
  -24.1348   -9.8816   -5.9418 C   0  0  0  0  0  0  0  0  0  0  0  0
  -22.7446  -10.0119   -6.0389 C   0  0  0  0  0  0  0  0  0  0  0  0
  -20.1802   -9.8948   -7.6670 C   0  0  0  0  0  0  0  0  0  0  0  0
  -20.8058  -10.9488   -6.9429 O   0  0  0  0  0  0  0  0  0  0  0  0
  -30.6245   -9.7092   -6.8960 C   0  0  0  0  0  0  0  0  0  0  0  0
  -31.0644   -8.4227   -7.2435 C   0  0  0  0  0  0  0  0  0  0  0  0
  -32.4301   -8.1197   -7.3502 C   0  0  0  0  0  0  0  0  0  0  0  0
  -33.3950   -9.0875   -7.0802 C   0  0  0  0  0  0  0  0  0  0  0  0
  -32.9934  -10.3689   -6.7346 C   0  0  0  0  0  0  0  0  0  0  0  0
  -31.6318  -10.6784   -6.6777 C   0  0  0  0  0  0  0  0  0  0  0  0
  -28.9349   -9.2207   -4.5005 O   0  0  0  0  0  0  0  0  0  0  0  0
  -29.0048   -7.8387   -4.3996 C   0  0  0  0  0  0  0  0  0  0  0  0
  -30.1766   -7.2764   -3.8844 C   0  0  0  0  0  0  0  0  0  0  0  0
  -30.3366   -5.8793   -3.8147 C   0  0  0  0  0  0  0  0  0  0  0  0
  -29.3139   -5.0333   -4.2513 C   0  0  0  0  0  0  0  0  0  0  0  0
  -28.1225   -5.5983   -4.7105 C   0  0  0  0  0  0  0  0  0  0  0  0
  -27.9546   -6.9873   -4.7549 C   0  0  0  0  0  0  0  0  0  0  0  0
  -29.3759   -3.6671   -4.3464 O   0  0  0  0  0  0  0  0  0  0  0  0
  -30.0080   -3.1204   -5.5101 C   0  0  0  0  0  0  0  0  0  0  0  0
  -29.4846   -1.6831   -5.7386 C   0  0  0  0  0  0  0  0  0  0  0  0
  -28.0464   -1.5993   -6.0770 N   0  0  0  0  0  0  0  0  0  0  0  0
  -27.8308   -1.0124   -7.4005 C   0  0  0  0  0  0  0  0  0  0  0  0
  -27.3288   -0.8066   -5.0713 C   0  0  0  0  0  0  0  0  0  0  0  0
 14 15  1  0  0  0
 15  8  1  0  0  0
  8  9  1  0  0  0
  8 13  2  0  0  0
  9 10  2  0  0  0
 10 11  1  0  0  0
 11  1  1  0  0  0
 11 12  2  0  0  0
  1  2  1  0  0  0
  1  7  2  0  0  0
  2  3  2  0  0  0
  3  4  1  0  0  0
  3  5  1  0  0  0
  5 16  1  0  0  0
  5  6  2  0  0  0
 16 17  1  0  0  0
 16 21  2  0  0  0
 17 18  2  0  0  0
 18 19  1  0  0  0
 19 20  2  0  0  0
 20 21  1  0  0  0
  6 22  1  0  0  0
  6  7  1  0  0  0
 22 23  1  0  0  0
 23 24  1  0  0  0
 23 28  2  0  0  0
 24 25  2  0  0  0
 25 26  1  0  0  0
 26 29  1  0  0  0
 26 27  2  0  0  0
 29 30  1  0  0  0
 30 31  1  0  0  0
 31 32  1  0  0  0
 32 33  1  0  0  0
 32 34  1  0  0  0
 27 28  1  0  0  0
 12 13  1  0  0  0
M  END
> <minimizedAffinity>
-7.10839

$$$$
