CHEMBL3219513


 30 32  0  0  0  0  0  0  0  0999 V2000
  -28.7244   -1.5024   -5.9750 C   0  0  0  0  0  0  0  0  0  0  0  0
  -29.6077   -1.9347   -4.9616 C   0  0  0  0  0  0  0  0  0  0  0  0
  -29.9387   -3.2716   -4.7993 C   0  0  0  0  0  0  0  0  0  0  0  0
  -30.7941   -3.6152   -3.8053 N   0  0  0  0  0  0  0  0  0  0  0  0
  -31.1287   -4.9070   -3.5996 C   0  0  0  0  0  0  0  0  0  0  0  0
  -30.5905   -5.8709   -4.3778 N   0  0  0  0  0  0  0  0  0  0  0  0
  -29.7209   -5.5985   -5.3916 C   0  0  0  0  0  0  0  0  0  0  0  0
  -29.3842   -4.2480   -5.6457 C   0  0  0  0  0  0  0  0  0  0  0  0
  -28.5124   -3.8399   -6.6670 C   0  0  0  0  0  0  0  0  0  0  0  0
  -28.1778   -2.4878   -6.8561 C   0  0  0  0  0  0  0  0  0  0  0  0
  -29.2058   -6.6899   -6.1625 N   0  0  0  0  0  0  0  0  0  0  0  0
  -28.2414   -6.6535   -6.5212 H   0  0  0  0  0  0  0  0  0  0  0  0
  -30.0309   -7.7902   -6.5502 C   0  0  0  0  0  0  0  0  0  0  0  0
  -31.2177   -7.5668   -7.2641 C   0  0  0  0  0  0  0  0  0  0  0  0
  -32.0471   -8.6419   -7.6085 C   0  0  0  0  0  0  0  0  0  0  0  0
  -31.6889   -9.9556   -7.2581 C   0  0  0  0  0  0  0  0  0  0  0  0
  -30.4858  -10.1822   -6.5842 C   0  0  0  0  0  0  0  0  0  0  0  0
  -29.6669   -9.1162   -6.2382 C   0  0  0  0  0  0  0  0  0  0  0  0
  -32.6172  -11.1785   -7.6041 B   0  0  0  0  0  0  0  0  0  0  0  0
  -32.3821  -11.9697   -8.8106 O   0  0  0  0  0  0  0  0  0  0  0  0
  -33.7604  -11.4932   -6.7446 O   0  0  0  0  0  0  0  0  0  0  0  0
  -32.4595  -11.3265   -9.5605 H   0  0  0  0  0  0  0  0  0  0  0  0
  -33.3653  -11.8659   -5.9155 H   0  0  0  0  0  0  0  0  0  0  0  0
  -27.3415   -2.2603   -7.9080 O   0  0  0  0  0  0  0  0  0  0  0  0
  -27.5515   -1.8230   -9.1972 C   0  0  0  0  0  0  0  0  0  0  0  0
  -28.4352   -0.1708   -6.0869 O   0  0  0  0  0  0  0  0  0  0  0  0
  -29.2469    0.8437   -5.5846 C   0  0  0  0  0  0  0  0  0  0  0  0
  -29.9339    1.6353   -6.6848 C   0  0  0  0  0  0  0  0  0  0  0  0
  -31.9770    2.3422   -7.4541 C   0  0  0  0  0  0  0  0  0  0  0  0
  -31.2880    1.8230   -6.3417 O   0  0  0  0  0  0  0  0  0  0  0  0
 29 30  1  0  0  0
 30 28  1  0  0  0
 28 27  1  0  0  0
 27 26  1  0  0  0
 26  1  1  0  0  0
  1  2  1  0  0  0
  1 10  2  0  0  0
  2  3  2  0  0  0
  3  4  1  0  0  0
  3  8  1  0  0  0
  4  5  2  0  0  0
  5  6  1  0  0  0
  6  7  2  0  0  0
  7 11  1  0  0  0
  7  8  1  0  0  0
 11 13  1  0  0  0
 11 12  1  0  0  0
 13 14  1  0  0  0
 13 18  2  0  0  0
 14 15  2  0  0  0
 15 16  1  0  0  0
 16 19  1  0  0  0
 16 17  2  0  0  0
 19 20  1  0  0  0
 19 21  1  0  0  0
 20 22  1  0  0  0
 21 23  1  0  0  0
 17 18  1  0  0  0
  8  9  2  0  0  0
  9 10  1  0  0  0
 10 24  1  0  0  0
 24 25  1  0  0  0
M  END
> <minimizedAffinity>
-7.63477

$$$$
