CHEMBL374079


 41 44  0  0  0  0  0  0  0  0999 V2000
  -16.2578    0.5401  -13.7858 C   0  0  0  0  0  0  0  0  0  0  0  0
  -15.4860    1.1479  -13.0515 O   0  0  0  0  0  0  0  0  0  0  0  0
  -16.1614   -0.7847  -14.1612 N   0  0  0  0  0  0  0  0  0  0  0  0
  -16.8890   -1.1673  -14.7442 H   0  0  0  0  0  0  0  0  0  0  0  0
  -19.8244    1.5131  -14.4995 C   0  0  0  0  0  0  0  0  0  0  0  0
  -19.6744    2.5937  -15.3746 C   0  0  0  0  0  0  0  0  0  0  0  0
  -18.4006    3.0157  -15.7355 C   0  0  0  0  0  0  0  0  0  0  0  0
  -17.2970    2.3474  -15.2236 C   0  0  0  0  0  0  0  0  0  0  0  0
  -16.1036    2.7257  -15.6846 F   0  0  0  0  0  0  0  0  0  0  0  0
  -17.4235    1.2929  -14.3199 C   0  0  0  0  0  0  0  0  0  0  0  0
  -18.7059    0.8670  -13.9644 C   0  0  0  0  0  0  0  0  0  0  0  0
  -22.2156    0.5920  -13.9232 C   0  0  0  0  0  0  0  0  0  0  0  0
  -21.1349    1.0422  -14.2013 C   0  0  0  0  0  0  0  0  0  0  0  0
  -26.9772   -1.7482  -12.4425 N   0  0  0  0  0  0  0  0  0  0  0  0
  -25.7908   -1.1546  -12.8182 C   0  0  0  0  0  0  0  0  0  0  0  0
  -25.2160   -0.3179  -11.9459 N   0  0  0  0  0  0  0  0  0  0  0  0
  -24.0481    0.2430  -12.3318 C   0  0  0  0  0  0  0  0  0  0  0  0
  -23.4580    0.0127  -13.5507 C   0  0  0  0  0  0  0  0  0  0  0  0
  -24.1517   -0.8437  -14.3777 C   0  0  0  0  0  0  0  0  0  0  0  0
  -25.3186   -1.4293  -14.0362 N   0  0  0  0  0  0  0  0  0  0  0  0
  -27.4345   -1.1907  -11.7350 H   0  0  0  0  0  0  0  0  0  0  0  0
  -27.5124   -2.0044  -13.2582 H   0  0  0  0  0  0  0  0  0  0  0  0
  -15.2077   -1.7316  -13.7110 C   0  0  0  0  0  0  0  0  0  0  0  0
  -15.6108   -2.7747  -12.8623 C   0  0  0  0  0  0  0  0  0  0  0  0
  -14.6868   -3.6520  -12.2819 C   0  0  0  0  0  0  0  0  0  0  0  0
  -13.3364   -3.5057  -12.6025 C   0  0  0  0  0  0  0  0  0  0  0  0
  -12.9259   -2.4858  -13.4688 C   0  0  0  0  0  0  0  0  0  0  0  0
  -13.8349   -1.5708  -14.0444 C   0  0  0  0  0  0  0  0  0  0  0  0
  -13.3308   -0.6604  -14.9754 N   0  0  0  0  0  0  0  0  0  0  0  0
  -12.5052    0.4773  -14.5787 C   0  0  0  0  0  0  0  0  0  0  0  0
  -12.7479    1.6921  -15.4587 C   0  0  0  0  0  0  0  0  0  0  0  0
  -12.6387    1.3307  -16.9398 C   0  0  0  0  0  0  0  0  0  0  0  0
  -13.4696    0.0864  -17.3049 C   0  0  0  0  0  0  0  0  0  0  0  0
  -14.9027    0.4123  -17.1705 N   0  0  0  0  0  0  0  0  0  0  0  0
  -13.1054   -1.0963  -16.3659 C   0  0  0  0  0  0  0  0  0  0  0  0
  -15.0840    0.4701  -16.1603 H   0  0  0  0  0  0  0  0  0  0  0  0
  -15.4497   -0.3938  -17.4691 H   0  0  0  0  0  0  0  0  0  0  0  0
  -15.1435   -4.6968  -11.2953 C   0  0  0  0  0  0  0  0  0  0  0  0
  -14.8219   -5.9710  -11.6547 F   0  0  0  0  0  0  0  0  0  0  0  0
  -14.6231   -4.5159  -10.0507 F   0  0  0  0  0  0  0  0  0  0  0  0
  -16.4979   -4.6932  -11.1372 F   0  0  0  0  0  0  0  0  0  0  0  0
 14 15  1  0  0  0
 14 21  1  0  0  0
 14 22  1  0  0  0
 15 16  1  0  0  0
 15 20  2  0  0  0
 16 17  2  0  0  0
 17 18  1  0  0  0
 18 12  1  0  0  0
 18 19  2  0  0  0
 12 13  3  0  0  0
 13  5  1  0  0  0
  5  6  1  0  0  0
  5 11  2  0  0  0
  6  7  2  0  0  0
  7  8  1  0  0  0
  8  9  1  0  0  0
  8 10  2  0  0  0
 10  1  1  0  0  0
 10 11  1  0  0  0
  1  2  2  0  0  0
  1  3  1  0  0  0
  3 23  1  0  0  0
  3  4  1  0  0  0
 23 24  1  0  0  0
 23 28  2  0  0  0
 24 25  2  0  0  0
 25 38  1  0  0  0
 25 26  1  0  0  0
 38 39  1  0  0  0
 38 40  1  0  0  0
 38 41  1  0  0  0
 26 27  2  0  0  0
 27 28  1  0  0  0
 28 29  1  0  0  0
 29 30  1  0  0  0
 29 35  1  0  0  0
 30 31  1  0  0  0
 31 32  1  0  0  0
 32 33  1  0  0  0
 33 35  1  0  0  0
 33 34  1  0  0  0
 34 36  1  0  0  0
 34 37  1  0  0  0
 19 20  1  0  0  0
M  END
> <minimizedAffinity>
-10.45449

$$$$
