CHEMBL1080639


 39 43  0  0  0  0  0  0  0  0999 V2000
  -14.6497   -5.8015  -13.0998 C   0  0  0  0  0  0  0  0  0  0  0  0
  -15.7851   -6.0300  -12.3231 C   0  0  0  0  0  0  0  0  0  0  0  0
  -16.5787   -4.9505  -11.8894 C   0  0  0  0  0  0  0  0  0  0  0  0
  -16.2470   -3.6467  -12.2558 C   0  0  0  0  0  0  0  0  0  0  0  0
  -15.1125   -3.4014  -13.0329 C   0  0  0  0  0  0  0  0  0  0  0  0
  -14.3260   -4.4851  -13.4579 C   0  0  0  0  0  0  0  0  0  0  0  0
  -14.7509   -2.0177  -13.3731 C   0  0  0  0  0  0  0  0  0  0  0  0
  -13.4497   -1.6578  -13.3481 C   0  0  0  0  0  0  0  0  0  0  0  0
  -13.1501   -0.3284  -13.5591 N   0  0  0  0  0  0  0  0  0  0  0  0
  -11.9533    0.3413  -13.5992 C   0  0  0  0  0  0  0  0  0  0  0  0
  -12.2982    1.6568  -13.8349 C   0  0  0  0  0  0  0  0  0  0  0  0
  -13.6629    1.8122  -13.9267 N   0  0  0  0  0  0  0  0  0  0  0  0
  -14.1363    0.5907  -13.7510 C   0  0  0  0  0  0  0  0  0  0  0  0
  -15.5236    0.1448  -13.7970 C   0  0  0  0  0  0  0  0  0  0  0  0
  -15.7920   -1.1298  -13.6290 N   0  0  0  0  0  0  0  0  0  0  0  0
  -16.5651    1.0228  -13.9981 N   0  0  0  0  0  0  0  0  0  0  0  0
  -16.6359    1.8057  -13.3570 H   0  0  0  0  0  0  0  0  0  0  0  0
  -17.3114    1.0959  -15.2303 C   0  0  0  0  0  0  0  0  0  0  0  0
  -18.7307    1.5522  -14.9822 C   0  0  0  0  0  0  0  0  0  0  0  0
  -19.8112    0.6709  -15.1169 C   0  0  0  0  0  0  0  0  0  0  0  0
  -21.0886    1.1269  -14.8273 C   0  0  0  0  0  0  0  0  0  0  0  0
  -21.3635    2.3826  -14.4120 N   0  0  0  0  0  0  0  0  0  0  0  0
  -20.3118    3.2185  -14.2875 C   0  0  0  0  0  0  0  0  0  0  0  0
  -18.9986    2.8573  -14.5564 C   0  0  0  0  0  0  0  0  0  0  0  0
  -13.0552   -8.4706  -15.0594 N   0  0  0  0  0  0  0  0  0  0  0  0
  -13.9262   -7.4113  -14.7805 C   0  0  0  0  0  0  0  0  0  0  0  0
  -14.7100   -6.9303  -15.5954 O   0  0  0  0  0  0  0  0  0  0  0  0
  -13.8136   -6.8975  -13.4905 N   0  0  0  0  0  0  0  0  0  0  0  0
  -12.7449   -9.0531  -14.2984 H   0  0  0  0  0  0  0  0  0  0  0  0
  -12.8838   -6.9190  -13.0929 H   0  0  0  0  0  0  0  0  0  0  0  0
  -12.0245   -8.4104  -17.3463 C   0  0  0  0  0  0  0  0  0  0  0  0
  -11.8907   -9.0050  -18.6214 C   0  0  0  0  0  0  0  0  0  0  0  0
  -12.5953  -10.1450  -18.9784 C   0  0  0  0  0  0  0  0  0  0  0  0
  -13.4559  -10.7137  -18.0453 C   0  0  0  0  0  0  0  0  0  0  0  0
  -14.3871  -12.2958  -18.4923 Br  0  0  0  0  0  0  0  0  0  0  0  0
  -13.6060  -10.1459  -16.7843 C   0  0  0  0  0  0  0  0  0  0  0  0
  -12.8860   -9.0052  -16.3848 C   0  0  0  0  0  0  0  0  0  0  0  0
  -11.8015   -6.0567  -17.5785 C   0  0  0  0  0  0  0  0  0  0  0  0
  -11.3132   -7.2784  -17.0016 O   0  0  0  0  0  0  0  0  0  0  0  0
 38 39  1  0  0  0
 39 31  1  0  0  0
 31 32  1  0  0  0
 31 37  2  0  0  0
 32 33  2  0  0  0
 33 34  1  0  0  0
 34 35  1  0  0  0
 34 36  2  0  0  0
 36 37  1  0  0  0
 37 25  1  0  0  0
 25 26  1  0  0  0
 25 29  1  0  0  0
 26 27  2  0  0  0
 26 28  1  0  0  0
 28  1  1  0  0  0
 28 30  1  0  0  0
  1  2  1  0  0  0
  1  6  2  0  0  0
  2  3  2  0  0  0
  3  4  1  0  0  0
  4  5  2  0  0  0
  5  7  1  0  0  0
  5  6  1  0  0  0
  7  8  2  0  0  0
  7 15  1  0  0  0
  8  9  1  0  0  0
  9 10  1  0  0  0
  9 13  1  0  0  0
 10 11  2  0  0  0
 11 12  1  0  0  0
 12 13  2  0  0  0
 13 14  1  0  0  0
 14 16  1  0  0  0
 14 15  2  0  0  0
 16 18  1  0  0  0
 16 17  1  0  0  0
 18 19  1  0  0  0
 19 20  1  0  0  0
 19 24  2  0  0  0
 20 21  2  0  0  0
 21 22  1  0  0  0
 22 23  2  0  0  0
 23 24  1  0  0  0
M  END
> <minimizedAffinity>
-8.54676

$$$$
