CHEMBL1084028


 44 49  0  0  0  0  0  0  0  0999 V2000
  -27.1741   -1.8291  -11.0424 C   0  0  0  0  0  0  0  0  0  0  0  0
  -27.7645   -2.3740  -12.2006 C   0  0  0  0  0  0  0  0  0  0  0  0
  -27.1099   -2.0700  -13.3215 N   0  0  0  0  0  0  0  0  0  0  0  0
  -26.0693   -1.2901  -12.8982 N   0  0  0  0  0  0  0  0  0  0  0  0
  -25.0487   -0.7216  -13.7090 C   0  0  0  0  0  0  0  0  0  0  0  0
  -25.1453   -0.9280  -15.0854 N   0  0  0  0  0  0  0  0  0  0  0  0
  -24.0492   -0.0525  -13.0935 C   0  0  0  0  0  0  0  0  0  0  0  0
  -24.1625    0.0672  -11.6095 C   0  0  0  0  0  0  0  0  0  0  0  0
  -25.0913   -0.4342  -10.8588 N   0  0  0  0  0  0  0  0  0  0  0  0
  -26.0666   -1.1431  -11.5066 C   0  0  0  0  0  0  0  0  0  0  0  0
  -25.7540   -1.7220  -15.3013 H   0  0  0  0  0  0  0  0  0  0  0  0
  -24.2524   -0.9455  -15.5687 H   0  0  0  0  0  0  0  0  0  0  0  0
  -28.2859   -3.2971   -7.7408 C   0  0  0  0  0  0  0  0  0  0  0  0
  -28.2390   -2.1405   -6.9517 C   0  0  0  0  0  0  0  0  0  0  0  0
  -27.8768   -0.9001   -7.4829 C   0  0  0  0  0  0  0  0  0  0  0  0
  -27.5392   -0.7903   -8.8281 C   0  0  0  0  0  0  0  0  0  0  0  0
  -27.5851   -1.9163   -9.6517 C   0  0  0  0  0  0  0  0  0  0  0  0
  -27.9746   -3.1470   -9.0980 C   0  0  0  0  0  0  0  0  0  0  0  0
  -30.9208   -7.9724   -6.3450 C   0  0  0  0  0  0  0  0  0  0  0  0
  -29.8069   -7.0336   -6.4178 N   0  0  0  0  0  0  0  0  0  0  0  0
  -29.4494   -6.7524   -7.8257 C   0  0  0  0  0  0  0  0  0  0  0  0
  -28.2599   -5.7723   -7.9443 C   0  0  0  0  0  0  0  0  0  0  0  0
  -28.5526   -4.5389   -7.2060 N   0  0  0  0  0  0  0  0  0  0  0  0
  -28.9909   -4.7299   -5.8142 C   0  0  0  0  0  0  0  0  0  0  0  0
  -30.1481   -5.7545   -5.7514 C   0  0  0  0  0  0  0  0  0  0  0  0
  -22.9054    0.5542  -13.7742 C   0  0  0  0  0  0  0  0  0  0  0  0
  -22.7675    1.9379  -13.8051 C   0  0  0  0  0  0  0  0  0  0  0  0
  -21.6443    2.5152  -14.3982 C   0  0  0  0  0  0  0  0  0  0  0  0
  -20.6415    1.7314  -14.9745 C   0  0  0  0  0  0  0  0  0  0  0  0
  -20.7914    0.3397  -14.9569 C   0  0  0  0  0  0  0  0  0  0  0  0
  -21.9188   -0.2448  -14.3626 C   0  0  0  0  0  0  0  0  0  0  0  0
  -19.4804    2.2785  -15.5798 N   0  0  0  0  0  0  0  0  0  0  0  0
  -18.1836    2.0813  -15.1512 C   0  0  0  0  0  0  0  0  0  0  0  0
  -17.8334    1.4009  -14.1970 O   0  0  0  0  0  0  0  0  0  0  0  0
  -17.2557    2.7700  -15.9036 N   0  0  0  0  0  0  0  0  0  0  0  0
  -19.6163    2.9127  -16.3466 H   0  0  0  0  0  0  0  0  0  0  0  0
  -17.4749    2.9595  -16.8688 H   0  0  0  0  0  0  0  0  0  0  0  0
  -15.8635    2.5963  -15.5252 C   0  0  0  0  0  0  0  0  0  0  0  0
  -14.8586    3.2678  -16.4613 C   0  0  0  0  0  0  0  0  0  0  0  0
  -15.5269    4.4735  -17.1494 C   0  0  0  0  0  0  0  0  0  0  0  0
  -14.5793    5.1649  -18.1247 C   0  0  0  0  0  0  0  0  0  0  0  0
  -14.0237    4.1848  -19.1524 C   0  0  0  0  0  0  0  0  0  0  0  0
  -13.3689    2.9805  -18.4844 C   0  0  0  0  0  0  0  0  0  0  0  0
  -14.3190    2.2883  -17.5115 C   0  0  0  0  0  0  0  0  0  0  0  0
 19 20  1  0  0  0
 20 21  1  0  0  0
 20 25  1  0  0  0
 21 22  1  0  0  0
 22 23  1  0  0  0
 23 13  1  0  0  0
 23 24  1  0  0  0
 13 14  1  0  0  0
 13 18  2  0  0  0
 14 15  2  0  0  0
 15 16  1  0  0  0
 16 17  2  0  0  0
 17  1  1  0  0  0
 17 18  1  0  0  0
  1  2  1  0  0  0
  1 10  2  0  0  0
  2  3  2  0  0  0
  3  4  1  0  0  0
  4  5  1  0  0  0
  4 10  1  0  0  0
  5  6  1  0  0  0
  5  7  2  0  0  0
  6 11  1  0  0  0
  6 12  1  0  0  0
  7 26  1  0  0  0
  7  8  1  0  0  0
 26 27  1  0  0  0
 26 31  2  0  0  0
 27 28  2  0  0  0
 28 29  1  0  0  0
 29 32  1  0  0  0
 29 30  2  0  0  0
 32 33  1  0  0  0
 32 36  1  0  0  0
 33 34  2  0  0  0
 33 35  1  0  0  0
 35 38  1  0  0  0
 35 37  1  0  0  0
 38 39  1  0  0  0
 39 40  1  0  0  0
 39 44  1  0  0  0
 40 41  1  0  0  0
 41 42  1  0  0  0
 42 43  1  0  0  0
 43 44  1  0  0  0
 30 31  1  0  0  0
  8  9  2  0  0  0
  9 10  1  0  0  0
 24 25  1  0  0  0
M  END
> <minimizedAffinity>
-10.46090

$$$$
