CHEMBL387929


 37 42  0  0  0  0  0  0  0  0999 V2000
  -26.8861   11.0379  -14.8909 C   0  0  0  0  0  0  0  0  0  0  0  0
  -27.5927   10.7034  -16.0740 C   0  0  0  0  0  0  0  0  0  0  0  0
  -28.9912   10.7431  -16.1302 C   0  0  0  0  0  0  0  0  0  0  0  0
  -29.6585   11.0813  -14.9775 C   0  0  0  0  0  0  0  0  0  0  0  0
  -28.9824   11.3853  -13.7677 C   0  0  0  0  0  0  0  0  0  0  0  0
  -27.5995   11.3858  -13.7279 C   0  0  0  0  0  0  0  0  0  0  0  0
  -29.9314   11.6731  -12.5906 C   0  0  0  0  0  0  0  0  0  0  0  0
  -31.2092   11.5205  -13.3378 C   0  0  0  0  0  0  0  0  0  0  0  0
  -32.5940   11.6038  -13.1701 C   0  0  0  0  0  0  0  0  0  0  0  0
  -33.2409   11.3897  -14.3343 N   0  0  0  0  0  0  0  0  0  0  0  0
  -32.2489   11.1315  -15.2302 N   0  0  0  0  0  0  0  0  0  0  0  0
  -31.0365   11.2006  -14.6558 C   0  0  0  0  0  0  0  0  0  0  0  0
  -32.5003   10.9384  -16.1935 H   0  0  0  0  0  0  0  0  0  0  0  0
  -33.2863   11.9074  -11.9147 C   0  0  0  0  0  0  0  0  0  0  0  0
  -34.6332   12.1817  -11.8078 C   0  0  0  0  0  0  0  0  0  0  0  0
  -35.0973   12.5158  -10.1949 S   0  0  0  0  0  0  0  0  0  0  0  0
  -33.5075   12.2654   -9.6230 C   0  0  0  0  0  0  0  0  0  0  0  0
  -32.6403   11.9357  -10.6409 C   0  0  0  0  0  0  0  0  0  0  0  0
  -33.1410   12.3850   -8.2518 C   0  0  0  0  0  0  0  0  0  0  0  0
  -32.7998   12.4427   -6.9946 C   0  0  0  0  0  0  0  0  0  0  0  0
  -32.4023   12.5099   -5.5291 C   0  0  0  0  0  0  0  0  0  0  0  0
  -33.4600   11.9928   -4.7226 O   0  0  0  0  0  0  0  0  0  0  0  0
  -33.2718   12.1143   -3.3710 C   0  0  0  0  0  0  0  0  0  0  0  0
  -32.1033   12.5802   -2.7621 C   0  0  0  0  0  0  0  0  0  0  0  0
  -32.0200   12.6579   -1.3679 C   0  0  0  0  0  0  0  0  0  0  0  0
  -33.1083   12.2802   -0.5834 C   0  0  0  0  0  0  0  0  0  0  0  0
  -32.9899   12.3556    1.1300 Cl  0  0  0  0  0  0  0  0  0  0  0  0
  -34.2873   11.8480   -1.1832 C   0  0  0  0  0  0  0  0  0  0  0  0
  -34.3696   11.7723   -2.5768 C   0  0  0  0  0  0  0  0  0  0  0  0
  -25.3673   11.0433  -14.8809 C   0  0  0  0  0  0  0  0  0  0  0  0
  -22.3315   10.7302  -18.6088 C   0  0  0  0  0  0  0  0  0  0  0  0
  -22.9378   11.6424  -17.6455 N   0  0  0  0  0  0  0  0  0  0  0  0
  -24.4033   11.6626  -17.7784 C   0  0  0  0  0  0  0  0  0  0  0  0
  -25.0372   12.6283  -16.7512 C   0  0  0  0  0  0  0  0  0  0  0  0
  -24.7410   12.2952  -15.3401 N   0  0  0  0  0  0  0  0  0  0  0  0
  -23.2633   12.2079  -15.2109 C   0  0  0  0  0  0  0  0  0  0  0  0
  -22.5584   11.3043  -16.2611 C   0  0  0  0  0  0  0  0  0  0  0  0
 31 32  1  0  0  0
 32 33  1  0  0  0
 32 37  1  0  0  0
 33 34  1  0  0  0
 34 35  1  0  0  0
 35 30  1  0  0  0
 35 36  1  0  0  0
 30  1  1  0  0  0
  1  2  1  0  0  0
  1  6  2  0  0  0
  2  3  2  0  0  0
  3  4  1  0  0  0
  4  5  2  0  0  0
  4 12  1  0  0  0
  5  6  1  0  0  0
  5  7  1  0  0  0
  7  8  1  0  0  0
  8  9  1  0  0  0
  8 12  2  0  0  0
  9 14  1  0  0  0
  9 10  2  0  0  0
 14 15  2  0  0  0
 14 18  1  0  0  0
 15 16  1  0  0  0
 16 17  1  0  0  0
 17 19  1  0  0  0
 17 18  2  0  0  0
 19 20  3  0  0  0
 20 21  1  0  0  0
 21 22  1  0  0  0
 22 23  1  0  0  0
 23 24  1  0  0  0
 23 29  2  0  0  0
 24 25  2  0  0  0
 25 26  1  0  0  0
 26 27  1  0  0  0
 26 28  2  0  0  0
 28 29  1  0  0  0
 10 11  1  0  0  0
 11 12  1  0  0  0
 11 13  1  0  0  0
 36 37  1  0  0  0
M  END
> <minimizedAffinity>
-5.45406

$$$$
