CHEMBL213504


 34 37  0  0  0  0  0  0  0  0999 V2000
  -13.3121   -2.9841  -11.6721 C   0  0  0  0  0  0  0  0  0  0  0  0
  -12.7092   -2.1196  -12.5959 C   0  0  0  0  0  0  0  0  0  0  0  0
  -13.4788   -1.3766  -13.4960 C   0  0  0  0  0  0  0  0  0  0  0  0
  -14.8682   -1.4930  -13.5066 C   0  0  0  0  0  0  0  0  0  0  0  0
  -15.4822   -2.2944  -12.5414 C   0  0  0  0  0  0  0  0  0  0  0  0
  -14.7101   -3.0189  -11.6199 C   0  0  0  0  0  0  0  0  0  0  0  0
  -13.1872   -6.1228  -13.0101 N   0  0  0  0  0  0  0  0  0  0  0  0
  -12.4031   -6.2486  -11.8696 C   0  0  0  0  0  0  0  0  0  0  0  0
  -11.8881   -7.4799  -11.6738 N   0  0  0  0  0  0  0  0  0  0  0  0
  -11.0782   -7.6883  -10.6264 C   0  0  0  0  0  0  0  0  0  0  0  0
  -10.6967   -6.7968   -9.7129 N   0  0  0  0  0  0  0  0  0  0  0  0
  -11.2463   -5.5915   -9.9299 C   0  0  0  0  0  0  0  0  0  0  0  0
  -10.9353   -4.2612   -8.9261 S   0  0  0  0  0  0  0  0  0  0  0  0
  -11.8916   -3.1981   -9.7449 N   0  0  0  0  0  0  0  0  0  0  0  0
  -12.4610   -3.8102  -10.7960 C   0  0  0  0  0  0  0  0  0  0  0  0
  -12.1074   -5.2192  -10.9552 C   0  0  0  0  0  0  0  0  0  0  0  0
  -13.0783   -6.9524  -13.5860 H   0  0  0  0  0  0  0  0  0  0  0  0
  -13.0590   -5.2492  -13.5068 H   0  0  0  0  0  0  0  0  0  0  0  0
  -15.6792   -0.8002  -14.4297 N   0  0  0  0  0  0  0  0  0  0  0  0
  -16.6890    0.0814  -14.0883 C   0  0  0  0  0  0  0  0  0  0  0  0
  -16.8722    0.5370  -12.9632 O   0  0  0  0  0  0  0  0  0  0  0  0
  -17.4952    0.3634  -15.1794 N   0  0  0  0  0  0  0  0  0  0  0  0
  -15.3336   -0.7092  -15.3752 H   0  0  0  0  0  0  0  0  0  0  0  0
  -17.6032   -0.4203  -15.8081 H   0  0  0  0  0  0  0  0  0  0  0  0
  -18.5876    1.2525  -15.0916 C   0  0  0  0  0  0  0  0  0  0  0  0
  -18.3970    2.5805  -15.4706 C   0  0  0  0  0  0  0  0  0  0  0  0
  -19.4642    3.4780  -15.4368 C   0  0  0  0  0  0  0  0  0  0  0  0
  -20.7123    3.0661  -14.9667 C   0  0  0  0  0  0  0  0  0  0  0  0
  -20.9059    1.7466  -14.5361 C   0  0  0  0  0  0  0  0  0  0  0  0
  -19.8403    0.8372  -14.6233 C   0  0  0  0  0  0  0  0  0  0  0  0
  -22.2321    1.3007  -13.9668 C   0  0  0  0  0  0  0  0  0  0  0  0
  -22.1137    0.5701  -12.8216 F   0  0  0  0  0  0  0  0  0  0  0  0
  -23.0587    2.3379  -13.6609 F   0  0  0  0  0  0  0  0  0  0  0  0
  -22.9276    0.5116  -14.8320 F   0  0  0  0  0  0  0  0  0  0  0  0
  7  8  1  0  0  0
  7 17  1  0  0  0
  7 18  1  0  0  0
  8  9  1  0  0  0
  8 16  2  0  0  0
  9 10  2  0  0  0
 10 11  1  0  0  0
 11 12  2  0  0  0
 12 13  1  0  0  0
 12 16  1  0  0  0
 13 14  1  0  0  0
 14 15  2  0  0  0
 15  1  1  0  0  0
 15 16  1  0  0  0
  1  2  1  0  0  0
  1  6  2  0  0  0
  2  3  2  0  0  0
  3  4  1  0  0  0
  4 19  1  0  0  0
  4  5  2  0  0  0
 19 20  1  0  0  0
 19 23  1  0  0  0
 20 21  2  0  0  0
 20 22  1  0  0  0
 22 25  1  0  0  0
 22 24  1  0  0  0
 25 26  1  0  0  0
 25 30  2  0  0  0
 26 27  2  0  0  0
 27 28  1  0  0  0
 28 29  2  0  0  0
 29 31  1  0  0  0
 29 30  1  0  0  0
 31 32  1  0  0  0
 31 33  1  0  0  0
 31 34  1  0  0  0
  5  6  1  0  0  0
M  END
> <minimizedAffinity>
-9.28331

$$$$
