CHEMBL221121


 31 34  0  0  0  0  0  0  0  0999 V2000
  -16.5659    3.5570  -16.3927 C   0  0  0  0  0  0  0  0  0  0  0  0
  -17.7970    3.0166  -15.7175 C   0  0  0  0  0  0  0  0  0  0  0  0
  -18.7999    3.9312  -15.3315 C   0  0  0  0  0  0  0  0  0  0  0  0
  -20.0106    3.4899  -14.7952 C   0  0  0  0  0  0  0  0  0  0  0  0
  -20.2560    2.1236  -14.6895 C   0  0  0  0  0  0  0  0  0  0  0  0
  -19.2737    1.2247  -15.0880 C   0  0  0  0  0  0  0  0  0  0  0  0
  -17.9962    1.6408  -15.4922 C   0  0  0  0  0  0  0  0  0  0  0  0
  -21.5568    1.6356  -14.1825 C   0  0  0  0  0  0  0  0  0  0  0  0
  -22.4442    2.4581  -13.9924 O   0  0  0  0  0  0  0  0  0  0  0  0
  -21.6223    0.2700  -13.9185 N   0  0  0  0  0  0  0  0  0  0  0  0
  -20.7460   -0.2393  -13.9421 H   0  0  0  0  0  0  0  0  0  0  0  0
  -22.7538   -0.4431  -13.4777 C   0  0  0  0  0  0  0  0  0  0  0  0
  -23.8547   -0.7139  -14.2907 C   0  0  0  0  0  0  0  0  0  0  0  0
  -24.9641   -1.3957  -13.7836 C   0  0  0  0  0  0  0  0  0  0  0  0
  -24.9796   -1.8181  -12.4573 C   0  0  0  0  0  0  0  0  0  0  0  0
  -23.8736   -1.5814  -11.6442 C   0  0  0  0  0  0  0  0  0  0  0  0
  -22.7585   -0.9095  -12.1561 C   0  0  0  0  0  0  0  0  0  0  0  0
  -16.9934    0.6687  -15.7021 N   0  0  0  0  0  0  0  0  0  0  0  0
  -16.5921    0.6426  -16.6385 H   0  0  0  0  0  0  0  0  0  0  0  0
  -16.0146    0.2347  -14.7575 C   0  0  0  0  0  0  0  0  0  0  0  0
  -16.4440   -0.4023  -13.6291 N   0  0  0  0  0  0  0  0  0  0  0  0
  -15.5513   -0.9927  -12.8169 C   0  0  0  0  0  0  0  0  0  0  0  0
  -14.1980   -0.9612  -13.0423 C   0  0  0  0  0  0  0  0  0  0  0  0
  -13.7428   -0.2586  -14.1543 C   0  0  0  0  0  0  0  0  0  0  0  0
  -14.6400    0.3557  -15.0588 C   0  0  0  0  0  0  0  0  0  0  0  0
  -14.1440    1.0378  -16.2773 C   0  0  0  0  0  0  0  0  0  0  0  0
  -13.2152    2.0656  -16.2290 C   0  0  0  0  0  0  0  0  0  0  0  0
  -12.7728    2.5611  -17.4344 C   0  0  0  0  0  0  0  0  0  0  0  0
  -13.2035    2.1122  -18.6232 N   0  0  0  0  0  0  0  0  0  0  0  0
  -14.1165    1.1353  -18.5742 C   0  0  0  0  0  0  0  0  0  0  0  0
  -14.6204    0.5768  -17.4612 N   0  0  0  0  0  0  0  0  0  0  0  0
  1  2  1  0  0  0
  2  3  1  0  0  0
  2  7  2  0  0  0
  3  4  2  0  0  0
  4  5  1  0  0  0
  5  8  1  0  0  0
  5  6  2  0  0  0
  8  9  2  0  0  0
  8 10  1  0  0  0
 10 12  1  0  0  0
 10 11  1  0  0  0
 12 13  1  0  0  0
 12 17  2  0  0  0
 13 14  2  0  0  0
 14 15  1  0  0  0
 15 16  2  0  0  0
 16 17  1  0  0  0
  6  7  1  0  0  0
  7 18  1  0  0  0
 18 20  1  0  0  0
 18 19  1  0  0  0
 20 21  1  0  0  0
 20 25  2  0  0  0
 21 22  2  0  0  0
 22 23  1  0  0  0
 23 24  2  0  0  0
 24 25  1  0  0  0
 25 26  1  0  0  0
 26 27  1  0  0  0
 26 31  2  0  0  0
 27 28  2  0  0  0
 28 29  1  0  0  0
 29 30  2  0  0  0
 30 31  1  0  0  0
M  END
> <minimizedAffinity>
-9.11035

$$$$
