CHEMBL1095762


 32 35  0  0  0  0  0  0  0  0999 V2000
  -11.1009    0.3179  -14.0389 N   0  0  0  0  0  0  0  0  0  0  0  0
  -12.3798   -0.1875  -13.9009 C   0  0  0  0  0  0  0  0  0  0  0  0
  -13.2869    0.2831  -14.7617 N   0  0  0  0  0  0  0  0  0  0  0  0
  -14.5549   -0.1907  -14.7445 C   0  0  0  0  0  0  0  0  0  0  0  0
  -14.8652   -1.1712  -13.7897 C   0  0  0  0  0  0  0  0  0  0  0  0
  -15.9981   -1.9614  -13.4502 C   0  0  0  0  0  0  0  0  0  0  0  0
  -15.6042   -2.8637  -12.4782 C   0  0  0  0  0  0  0  0  0  0  0  0
  -14.3285   -2.5108  -12.0929 N   0  0  0  0  0  0  0  0  0  0  0  0
  -13.8474   -1.5402  -12.9295 C   0  0  0  0  0  0  0  0  0  0  0  0
  -12.5935   -1.0707  -12.9210 N   0  0  0  0  0  0  0  0  0  0  0  0
  -11.1366    1.1959  -14.5375 H   0  0  0  0  0  0  0  0  0  0  0  0
  -10.6209    0.2987  -13.1528 H   0  0  0  0  0  0  0  0  0  0  0  0
  -13.7747   -2.9561  -11.3736 H   0  0  0  0  0  0  0  0  0  0  0  0
  -15.5306    0.2695  -15.6455 N   0  0  0  0  0  0  0  0  0  0  0  0
  -15.5121   -0.2101  -16.5395 H   0  0  0  0  0  0  0  0  0  0  0  0
  -16.7264    0.9763  -15.4217 C   0  0  0  0  0  0  0  0  0  0  0  0
  -17.9237    0.3445  -15.0583 C   0  0  0  0  0  0  0  0  0  0  0  0
  -19.1173    1.0627  -14.9462 C   0  0  0  0  0  0  0  0  0  0  0  0
  -19.1268    2.4321  -15.1885 C   0  0  0  0  0  0  0  0  0  0  0  0
  -20.7530    3.3897  -15.0966 Br  0  0  0  0  0  0  0  0  0  0  0  0
  -17.9500    3.0980  -15.5094 C   0  0  0  0  0  0  0  0  0  0  0  0
  -16.7624    2.3711  -15.6200 C   0  0  0  0  0  0  0  0  0  0  0  0
  -15.3171    3.2302  -16.0453 Cl  0  0  0  0  0  0  0  0  0  0  0  0
  -16.2990   -4.0722  -11.9434 C   0  0  0  0  0  0  0  0  0  0  0  0
  -15.5213   -5.3521  -12.1240 C   0  0  0  0  0  0  0  0  0  0  0  0
  -15.7443   -6.1220  -13.2809 C   0  0  0  0  0  0  0  0  0  0  0  0
  -15.0514   -7.3154  -13.4894 C   0  0  0  0  0  0  0  0  0  0  0  0
  -14.1312   -7.7528  -12.5417 C   0  0  0  0  0  0  0  0  0  0  0  0
  -13.2875   -9.2309  -12.7916 Cl  0  0  0  0  0  0  0  0  0  0  0  0
  -13.8918   -7.0063  -11.3915 C   0  0  0  0  0  0  0  0  0  0  0  0
  -14.5868   -5.8126  -11.1816 C   0  0  0  0  0  0  0  0  0  0  0  0
  -14.2458   -4.9345   -9.7320 Cl  0  0  0  0  0  0  0  0  0  0  0  0
  1  2  1  0  0  0
  1 11  1  0  0  0
  1 12  1  0  0  0
  2  3  1  0  0  0
  2 10  2  0  0  0
  3  4  2  0  0  0
  4 14  1  0  0  0
  4  5  1  0  0  0
 14 16  1  0  0  0
 14 15  1  0  0  0
 16 17  1  0  0  0
 16 22  2  0  0  0
 17 18  2  0  0  0
 18 19  1  0  0  0
 19 20  1  0  0  0
 19 21  2  0  0  0
 21 22  1  0  0  0
 22 23  1  0  0  0
  5  6  1  0  0  0
  5  9  2  0  0  0
  6  7  2  0  0  0
  7 24  1  0  0  0
  7  8  1  0  0  0
 24 25  1  0  0  0
 25 26  1  0  0  0
 25 31  2  0  0  0
 26 27  2  0  0  0
 27 28  1  0  0  0
 28 29  1  0  0  0
 28 30  2  0  0  0
 30 31  1  0  0  0
 31 32  1  0  0  0
  8  9  1  0  0  0
  8 13  1  0  0  0
  9 10  1  0  0  0
M  END
> <minimizedAffinity>
-8.73026

$$$$
