CHEMBL1971947


 39 43  0  0  0  0  0  0  0  0999 V2000
  -13.9052    2.6098  -16.1613 C   0  0  0  0  0  0  0  0  0  0  0  0
  -12.8198    1.8134  -15.8436 C   0  0  0  0  0  0  0  0  0  0  0  0
  -13.1848    0.5443  -14.7848 S   0  0  0  0  0  0  0  0  0  0  0  0
  -14.8445    0.9990  -14.6760 C   0  0  0  0  0  0  0  0  0  0  0  0
  -15.8438    0.3602  -13.9127 C   0  0  0  0  0  0  0  0  0  0  0  0
  -17.1061    0.9001  -13.9923 C   0  0  0  0  0  0  0  0  0  0  0  0
  -17.4225    1.9704  -14.7444 N   0  0  0  0  0  0  0  0  0  0  0  0
  -16.4775    2.5862  -15.4894 C   0  0  0  0  0  0  0  0  0  0  0  0
  -16.9649    3.6449  -16.2443 N   0  0  0  0  0  0  0  0  0  0  0  0
  -15.1252    2.1310  -15.4762 C   0  0  0  0  0  0  0  0  0  0  0  0
  -17.9791    3.6312  -16.2197 H   0  0  0  0  0  0  0  0  0  0  0  0
  -16.5636    3.6954  -17.1725 H   0  0  0  0  0  0  0  0  0  0  0  0
  -13.5450    5.9537  -18.8781 C   0  0  0  0  0  0  0  0  0  0  0  0
  -14.0995    4.7426  -19.2997 C   0  0  0  0  0  0  0  0  0  0  0  0
  -14.1958    3.6542  -18.4218 C   0  0  0  0  0  0  0  0  0  0  0  0
  -13.7095    3.7340  -17.1066 C   0  0  0  0  0  0  0  0  0  0  0  0
  -13.0483    4.9146  -16.7407 C   0  0  0  0  0  0  0  0  0  0  0  0
  -12.9868    6.0249  -17.6051 C   0  0  0  0  0  0  0  0  0  0  0  0
  -14.5607    9.0897  -20.4301 N   0  0  0  0  0  0  0  0  0  0  0  0
  -14.6343    8.0189  -19.5484 C   0  0  0  0  0  0  0  0  0  0  0  0
  -15.4977    7.8713  -18.6875 O   0  0  0  0  0  0  0  0  0  0  0  0
  -13.5886    7.1116  -19.7039 N   0  0  0  0  0  0  0  0  0  0  0  0
  -13.9056    9.0177  -21.1906 H   0  0  0  0  0  0  0  0  0  0  0  0
  -12.7001    7.5291  -19.9395 H   0  0  0  0  0  0  0  0  0  0  0  0
  -19.2178   10.8818  -20.3680 C   0  0  0  0  0  0  0  0  0  0  0  0
  -17.7308   11.0902  -20.4128 C   0  0  0  0  0  0  0  0  0  0  0  0
  -17.2306   12.3948  -20.4608 C   0  0  0  0  0  0  0  0  0  0  0  0
  -15.8620   12.6131  -20.4972 C   0  0  0  0  0  0  0  0  0  0  0  0
  -14.9833   11.5292  -20.4890 C   0  0  0  0  0  0  0  0  0  0  0  0
  -15.4425   10.2100  -20.4376 C   0  0  0  0  0  0  0  0  0  0  0  0
  -16.8318    9.9987  -20.4009 C   0  0  0  0  0  0  0  0  0  0  0  0
  -15.5649   -0.7912  -13.1065 C   0  0  0  0  0  0  0  0  0  0  0  0
  -15.3286   -1.7679  -12.4392 C   0  0  0  0  0  0  0  0  0  0  0  0
  -15.0438   -2.9273  -11.6607 C   0  0  0  0  0  0  0  0  0  0  0  0
  -14.4127   -4.0359  -12.2234 C   0  0  0  0  0  0  0  0  0  0  0  0
  -14.1868   -5.1689  -11.4436 C   0  0  0  0  0  0  0  0  0  0  0  0
  -14.5988   -5.1529  -10.1202 C   0  0  0  0  0  0  0  0  0  0  0  0
  -15.1973   -4.0931   -9.5346 N   0  0  0  0  0  0  0  0  0  0  0  0
  -15.4074   -3.0065  -10.3184 C   0  0  0  0  0  0  0  0  0  0  0  0
 25 26  1  0  0  0
 26 27  1  0  0  0
 26 31  2  0  0  0
 27 28  2  0  0  0
 28 29  1  0  0  0
 29 30  2  0  0  0
 30 19  1  0  0  0
 30 31  1  0  0  0
 19 20  1  0  0  0
 19 23  1  0  0  0
 20 21  2  0  0  0
 20 22  1  0  0  0
 22 13  1  0  0  0
 22 24  1  0  0  0
 13 14  1  0  0  0
 13 18  2  0  0  0
 14 15  2  0  0  0
 15 16  1  0  0  0
 16  1  1  0  0  0
 16 17  2  0  0  0
  1  2  2  0  0  0
  1 10  1  0  0  0
  2  3  1  0  0  0
  3  4  1  0  0  0
  4  5  1  0  0  0
  4 10  2  0  0  0
  5 32  1  0  0  0
  5  6  2  0  0  0
 32 33  3  0  0  0
 33 34  1  0  0  0
 34 35  1  0  0  0
 34 39  2  0  0  0
 35 36  2  0  0  0
 36 37  1  0  0  0
 37 38  2  0  0  0
 38 39  1  0  0  0
  6  7  1  0  0  0
  7  8  2  0  0  0
  8  9  1  0  0  0
  8 10  1  0  0  0
  9 11  1  0  0  0
  9 12  1  0  0  0
 17 18  1  0  0  0
M  END
> <minimizedAffinity>
-7.48877

$$$$
