CHEMBL91815


 36 40  0  0  0  0  0  0  0  0999 V2000
  -22.9737    0.1790  -13.6883 C   0  0  0  0  0  0  0  0  0  0  0  0
  -21.9508   -0.6795  -14.1759 C   0  0  0  0  0  0  0  0  0  0  0  0
  -20.7394   -0.1916  -14.6669 C   0  0  0  0  0  0  0  0  0  0  0  0
  -20.5522    1.1732  -14.6886 C   0  0  0  0  0  0  0  0  0  0  0  0
  -21.5468    2.0367  -14.2414 C   0  0  0  0  0  0  0  0  0  0  0  0
  -22.7443    1.5722  -13.7261 C   0  0  0  0  0  0  0  0  0  0  0  0
  -21.1460    3.3596  -14.3997 N   0  0  0  0  0  0  0  0  0  0  0  0
  -19.8721    3.4412  -14.9555 C   0  0  0  0  0  0  0  0  0  0  0  0
  -19.2658    4.4538  -15.2506 O   0  0  0  0  0  0  0  0  0  0  0  0
  -19.4251    2.0128  -15.1212 C   0  0  0  0  0  0  0  0  0  0  0  0
  -18.2677    1.4591  -15.5071 C   0  0  0  0  0  0  0  0  0  0  0  0
  -21.6987    4.1753  -14.1813 H   0  0  0  0  0  0  0  0  0  0  0  0
  -17.0394    2.0567  -15.8800 C   0  0  0  0  0  0  0  0  0  0  0  0
  -16.9807    3.2672  -16.5273 N   0  0  0  0  0  0  0  0  0  0  0  0
  -15.6751    3.5867  -16.7691 C   0  0  0  0  0  0  0  0  0  0  0  0
  -14.8732    2.5659  -16.3100 C   0  0  0  0  0  0  0  0  0  0  0  0
  -15.7289    1.5926  -15.7111 C   0  0  0  0  0  0  0  0  0  0  0  0
  -13.3902    2.5717  -16.5023 C   0  0  0  0  0  0  0  0  0  0  0  0
  -12.8757    3.9511  -16.9583 C   0  0  0  0  0  0  0  0  0  0  0  0
  -13.8018    4.6210  -17.9892 C   0  0  0  0  0  0  0  0  0  0  0  0
  -15.2150    4.8396  -17.4229 C   0  0  0  0  0  0  0  0  0  0  0  0
  -17.7800    3.8390  -16.7850 H   0  0  0  0  0  0  0  0  0  0  0  0
  -15.3065    0.3112  -15.0483 C   0  0  0  0  0  0  0  0  0  0  0  0
  -15.4727    0.3555  -13.5313 C   0  0  0  0  0  0  0  0  0  0  0  0
  -15.6541   -1.0223  -12.9489 C   0  0  0  0  0  0  0  0  0  0  0  0
  -15.5468   -1.3158  -11.7696 O   0  0  0  0  0  0  0  0  0  0  0  0
  -15.9565   -1.9406  -13.8978 O   0  0  0  0  0  0  0  0  0  0  0  0
  -16.0091   -1.5685  -14.7995 H   0  0  0  0  0  0  0  0  0  0  0  0
  -26.7174   -1.4313  -12.2544 C   0  0  0  0  0  0  0  0  0  0  0  0
  -26.2825   -1.7072  -13.5462 C   0  0  0  0  0  0  0  0  0  0  0  0
  -25.0551   -1.2058  -13.9951 C   0  0  0  0  0  0  0  0  0  0  0  0
  -24.2396   -0.3963  -13.1808 C   0  0  0  0  0  0  0  0  0  0  0  0
  -24.6980   -0.1373  -11.8812 C   0  0  0  0  0  0  0  0  0  0  0  0
  -25.9160   -0.6531  -11.4225 C   0  0  0  0  0  0  0  0  0  0  0  0
  -28.0457   -1.6346  -10.3003 C   0  0  0  0  0  0  0  0  0  0  0  0
  -27.8901   -1.8573  -11.6961 O   0  0  0  0  0  0  0  0  0  0  0  0
 35 36  1  0  0  0
 36 29  1  0  0  0
 29 30  1  0  0  0
 29 34  2  0  0  0
 30 31  2  0  0  0
 31 32  1  0  0  0
 32  1  1  0  0  0
 32 33  2  0  0  0
  1  2  1  0  0  0
  1  6  2  0  0  0
  2  3  2  0  0  0
  3  4  1  0  0  0
  4  5  2  0  0  0
  4 10  1  0  0  0
  5  6  1  0  0  0
  5  7  1  0  0  0
  7  8  1  0  0  0
  7 12  1  0  0  0
  8  9  2  0  0  0
  8 10  1  0  0  0
 10 11  2  0  0  0
 11 13  1  0  0  0
 13 14  1  0  0  0
 13 17  2  0  0  0
 14 15  1  0  0  0
 14 22  1  0  0  0
 15 16  2  0  0  0
 15 21  1  0  0  0
 16 17  1  0  0  0
 16 18  1  0  0  0
 17 23  1  0  0  0
 23 24  1  0  0  0
 24 25  1  0  0  0
 25 26  2  0  0  0
 25 27  1  0  0  0
 27 28  1  0  0  0
 18 19  1  0  0  0
 19 20  1  0  0  0
 20 21  1  0  0  0
 33 34  1  0  0  0
M  END
> <minimizedAffinity>
-9.84752

$$$$
