CHEMBL3690556


 31 33  0  0  0  0  0  0  0  0999 V2000
  -24.9195   -1.2446  -12.3387 C   0  0  0  0  0  0  0  0  0  0  0  0
  -25.4007   -1.8712  -13.4859 C   0  0  0  0  0  0  0  0  0  0  0  0
  -24.9647   -1.4695  -14.7479 C   0  0  0  0  0  0  0  0  0  0  0  0
  -24.0810   -0.3993  -14.8771 C   0  0  0  0  0  0  0  0  0  0  0  0
  -23.6028    0.2758  -13.7467 C   0  0  0  0  0  0  0  0  0  0  0  0
  -23.9854   -0.2026  -12.4781 C   0  0  0  0  0  0  0  0  0  0  0  0
  -22.7405    1.4554  -13.9284 C   0  0  0  0  0  0  0  0  0  0  0  0
  -22.9863    2.7830  -13.5993 C   0  0  0  0  0  0  0  0  0  0  0  0
  -21.9205    3.5966  -13.8721 N   0  0  0  0  0  0  0  0  0  0  0  0
  -20.9967    2.7980  -14.3568 C   0  0  0  0  0  0  0  0  0  0  0  0
  -19.6780    3.0865  -14.8184 C   0  0  0  0  0  0  0  0  0  0  0  0
  -18.8747    2.1098  -15.3078 C   0  0  0  0  0  0  0  0  0  0  0  0
  -19.3543    0.7217  -15.2582 C   0  0  0  0  0  0  0  0  0  0  0  0
  -20.5848    0.4400  -14.8064 C   0  0  0  0  0  0  0  0  0  0  0  0
  -21.4251    1.4709  -14.3875 N   0  0  0  0  0  0  0  0  0  0  0  0
  -17.5374    2.4711  -15.7728 C   0  0  0  0  0  0  0  0  0  0  0  0
  -17.1579    3.7271  -16.0634 C   0  0  0  0  0  0  0  0  0  0  0  0
  -15.7989    4.1167  -16.5369 C   0  0  0  0  0  0  0  0  0  0  0  0
  -15.1827    4.8874  -15.5183 O   0  0  0  0  0  0  0  0  0  0  0  0
  -15.7295    5.6825  -15.3975 H   0  0  0  0  0  0  0  0  0  0  0  0
  -27.6509   -1.4047  -11.1709 O   0  0  0  0  0  0  0  0  0  0  0  0
  -26.6233   -1.6441  -10.5535 C   0  0  0  0  0  0  0  0  0  0  0  0
  -26.6677   -2.0442   -9.2324 N   0  0  0  0  0  0  0  0  0  0  0  0
  -25.3308   -1.5896  -11.0292 N   0  0  0  0  0  0  0  0  0  0  0  0
  -25.8566   -1.8443   -8.6660 H   0  0  0  0  0  0  0  0  0  0  0  0
  -24.6003   -1.7976  -10.3663 H   0  0  0  0  0  0  0  0  0  0  0  0
  -27.9655   -2.0555   -8.5424 C   0  0  0  0  0  0  0  0  0  0  0  0
  -28.4534   -3.4311   -8.0626 C   0  0  0  0  0  0  0  0  0  0  0  0
  -28.3959   -3.5525   -6.7162 F   0  0  0  0  0  0  0  0  0  0  0  0
  -29.7158   -3.6949   -8.4569 F   0  0  0  0  0  0  0  0  0  0  0  0
  -27.6590   -4.4055   -8.5746 F   0  0  0  0  0  0  0  0  0  0  0  0
 21 22  2  0  0  0
 22 23  1  0  0  0
 22 24  1  0  0  0
 23 27  1  0  0  0
 23 25  1  0  0  0
 27 28  1  0  0  0
 28 29  1  0  0  0
 28 30  1  0  0  0
 28 31  1  0  0  0
 24  1  1  0  0  0
 24 26  1  0  0  0
  1  2  1  0  0  0
  1  6  2  0  0  0
  2  3  2  0  0  0
  3  4  1  0  0  0
  4  5  2  0  0  0
  5  7  1  0  0  0
  5  6  1  0  0  0
  7  8  2  0  0  0
  7 15  1  0  0  0
  8  9  1  0  0  0
  9 10  2  0  0  0
 10 11  1  0  0  0
 10 15  1  0  0  0
 11 12  2  0  0  0
 12 16  1  0  0  0
 12 13  1  0  0  0
 16 17  2  0  0  0
 17 18  1  0  0  0
 18 19  1  0  0  0
 19 20  1  0  0  0
 13 14  2  0  0  0
 14 15  1  0  0  0
M  END
> <minimizedAffinity>
-9.93075

$$$$
