CHEMBL3906608


 38 41  0  0  0  0  0  0  0  0999 V2000
  -27.9519   -4.2257   -3.4844 C   0  0  0  0  0  0  0  0  0  0  0  0
  -28.6214   -4.4235   -4.8149 C   0  0  0  0  0  0  0  0  0  0  0  0
  -28.4486   -3.4223   -5.7853 C   0  0  0  0  0  0  0  0  0  0  0  0
  -29.0110   -3.5185   -7.0599 C   0  0  0  0  0  0  0  0  0  0  0  0
  -29.8473   -4.5984   -7.3393 C   0  0  0  0  0  0  0  0  0  0  0  0
  -30.0610   -5.5915   -6.3726 C   0  0  0  0  0  0  0  0  0  0  0  0
  -29.4248   -5.5388   -5.1213 C   0  0  0  0  0  0  0  0  0  0  0  0
  -28.7768   -2.5414   -8.0547 N   0  0  0  0  0  0  0  0  0  0  0  0
  -28.0077   -2.7594   -9.1872 C   0  0  0  0  0  0  0  0  0  0  0  0
  -27.5819   -3.8508   -9.5483 O   0  0  0  0  0  0  0  0  0  0  0  0
  -27.7203   -1.5724   -9.8491 N   0  0  0  0  0  0  0  0  0  0  0  0
  -29.4377   -1.7774   -8.1165 H   0  0  0  0  0  0  0  0  0  0  0  0
  -27.6134   -0.7810   -9.2289 H   0  0  0  0  0  0  0  0  0  0  0  0
  -26.9239   -1.5733  -11.0177 C   0  0  0  0  0  0  0  0  0  0  0  0
  -27.5483   -1.7144  -12.2574 C   0  0  0  0  0  0  0  0  0  0  0  0
  -26.7892   -1.6441  -13.4270 C   0  0  0  0  0  0  0  0  0  0  0  0
  -25.4059   -1.4904  -13.3559 C   0  0  0  0  0  0  0  0  0  0  0  0
  -24.7143   -1.4355  -14.5011 F   0  0  0  0  0  0  0  0  0  0  0  0
  -24.7541   -1.3956  -12.1320 C   0  0  0  0  0  0  0  0  0  0  0  0
  -25.5310   -1.4214  -10.9585 C   0  0  0  0  0  0  0  0  0  0  0  0
  -23.2616   -1.2758  -12.0511 C   0  0  0  0  0  0  0  0  0  0  0  0
  -22.5832   -1.8047  -13.1067 F   0  0  0  0  0  0  0  0  0  0  0  0
  -22.8417    0.0164  -11.9546 F   0  0  0  0  0  0  0  0  0  0  0  0
  -22.7606   -1.9070  -10.9491 F   0  0  0  0  0  0  0  0  0  0  0  0
  -29.6378   -6.5153   -4.1580 O   0  0  0  0  0  0  0  0  0  0  0  0
  -28.9192   -7.7107   -4.2685 C   0  0  0  0  0  0  0  0  0  0  0  0
  -28.2364   -7.9495   -5.4499 C   0  0  0  0  0  0  0  0  0  0  0  0
  -27.5489   -9.1487   -5.5246 C   0  0  0  0  0  0  0  0  0  0  0  0
  -27.5384  -10.0139   -4.5037 N   0  0  0  0  0  0  0  0  0  0  0  0
  -28.2423   -9.6976   -3.4158 C   0  0  0  0  0  0  0  0  0  0  0  0
  -28.9573   -8.5854   -3.2489 N   0  0  0  0  0  0  0  0  0  0  0  0
  -26.8886   -9.4972   -6.7222 N   0  0  0  0  0  0  0  0  0  0  0  0
  -27.4761  -10.2251   -7.7428 C   0  0  0  0  0  0  0  0  0  0  0  0
  -28.5347  -10.8354   -7.6940 O   0  0  0  0  0  0  0  0  0  0  0  0
  -25.9482   -9.1645   -6.8531 H   0  0  0  0  0  0  0  0  0  0  0  0
  -26.7328  -10.2891   -9.0407 C   0  0  0  0  0  0  0  0  0  0  0  0
  -27.0478   -9.3268  -10.1599 C   0  0  0  0  0  0  0  0  0  0  0  0
  -27.2729  -10.8002  -10.3509 C   0  0  0  0  0  0  0  0  0  0  0  0
  1  2  1  0  0  0
  2  3  1  0  0  0
  2  7  2  0  0  0
  3  4  2  0  0  0
  4  8  1  0  0  0
  4  5  1  0  0  0
  8  9  1  0  0  0
  8 12  1  0  0  0
  9 10  2  0  0  0
  9 11  1  0  0  0
 11 14  1  0  0  0
 11 13  1  0  0  0
 14 15  1  0  0  0
 14 20  2  0  0  0
 15 16  2  0  0  0
 16 17  1  0  0  0
 17 18  1  0  0  0
 17 19  2  0  0  0
 19 21  1  0  0  0
 19 20  1  0  0  0
 21 22  1  0  0  0
 21 23  1  0  0  0
 21 24  1  0  0  0
  5  6  2  0  0  0
  6  7  1  0  0  0
  7 25  1  0  0  0
 25 26  1  0  0  0
 26 27  1  0  0  0
 26 31  2  0  0  0
 27 28  2  0  0  0
 28 32  1  0  0  0
 28 29  1  0  0  0
 32 33  1  0  0  0
 32 35  1  0  0  0
 33 34  2  0  0  0
 33 36  1  0  0  0
 36 37  1  0  0  0
 36 38  1  0  0  0
 37 38  1  0  0  0
 29 30  2  0  0  0
 30 31  1  0  0  0
M  END
> <minimizedAffinity>
-9.65900

$$$$
