CHEMBL215730


 45 49  0  0  0  0  0  0  0  0999 V2000
  -12.1412   -2.7355  -14.3207 C   0  0  0  0  0  0  0  0  0  0  0  0
  -11.4361   -2.9331  -13.1559 C   0  0  0  0  0  0  0  0  0  0  0  0
  -11.1437   -1.8014  -12.4355 C   0  0  0  0  0  0  0  0  0  0  0  0
  -11.5880   -0.5767  -12.7610 N   0  0  0  0  0  0  0  0  0  0  0  0
  -12.3520   -0.4907  -13.8557 C   0  0  0  0  0  0  0  0  0  0  0  0
  -12.5921   -1.5248  -14.6710 N   0  0  0  0  0  0  0  0  0  0  0  0
  -12.4067   -3.8172  -15.1940 N   0  0  0  0  0  0  0  0  0  0  0  0
  -12.5069   -3.5341  -16.5639 C   0  0  0  0  0  0  0  0  0  0  0  0
  -11.7554   -2.7594  -17.1554 O   0  0  0  0  0  0  0  0  0  0  0  0
  -13.8865   -7.3445  -13.3421 C   0  0  0  0  0  0  0  0  0  0  0  0
  -12.5885   -7.3178  -13.8512 C   0  0  0  0  0  0  0  0  0  0  0  0
  -12.1037   -6.1661  -14.4957 C   0  0  0  0  0  0  0  0  0  0  0  0
  -12.9087   -5.0218  -14.6271 C   0  0  0  0  0  0  0  0  0  0  0  0
  -14.2292   -5.0758  -14.1537 C   0  0  0  0  0  0  0  0  0  0  0  0
  -14.7000   -6.2182  -13.4969 C   0  0  0  0  0  0  0  0  0  0  0  0
  -13.6815   -9.1628  -11.8059 C   0  0  0  0  0  0  0  0  0  0  0  0
  -14.4813   -8.3884  -12.6889 O   0  0  0  0  0  0  0  0  0  0  0  0
  -15.1418   -4.0621  -14.3212 O   0  0  0  0  0  0  0  0  0  0  0  0
  -15.6221   -3.5429  -13.0776 C   0  0  0  0  0  0  0  0  0  0  0  0
  -13.5803   -4.1850  -17.1862 O   0  0  0  0  0  0  0  0  0  0  0  0
  -13.5527   -4.6648  -18.5336 C   0  0  0  0  0  0  0  0  0  0  0  0
  -13.6446   -3.8185  -19.6549 C   0  0  0  0  0  0  0  0  0  0  0  0
  -13.4812   -2.3276  -19.6736 C   0  0  0  0  0  0  0  0  0  0  0  0
  -13.9483   -4.3963  -20.9043 C   0  0  0  0  0  0  0  0  0  0  0  0
  -14.1239   -5.7684  -21.0507 C   0  0  0  0  0  0  0  0  0  0  0  0
  -13.9616   -6.6015  -19.9520 C   0  0  0  0  0  0  0  0  0  0  0  0
  -13.6807   -6.0610  -18.6865 C   0  0  0  0  0  0  0  0  0  0  0  0
  -13.4782   -7.0065  -17.5321 C   0  0  0  0  0  0  0  0  0  0  0  0
  -12.9432    0.7416  -14.1062 N   0  0  0  0  0  0  0  0  0  0  0  0
  -12.2902    1.4889  -13.9260 H   0  0  0  0  0  0  0  0  0  0  0  0
  -14.3024    1.0794  -14.1390 C   0  0  0  0  0  0  0  0  0  0  0  0
  -15.2459    0.5261  -13.2811 C   0  0  0  0  0  0  0  0  0  0  0  0
  -16.5998    0.8131  -13.4211 C   0  0  0  0  0  0  0  0  0  0  0  0
  -17.0948    1.6327  -14.4481 C   0  0  0  0  0  0  0  0  0  0  0  0
  -16.1406    2.1980  -15.3270 C   0  0  0  0  0  0  0  0  0  0  0  0
  -14.7663    1.9316  -15.1434 C   0  0  0  0  0  0  0  0  0  0  0  0
  -18.4742    1.8280  -14.4642 N   0  0  0  0  0  0  0  0  0  0  0  0
  -19.0675    3.1699  -14.5133 C   0  0  0  0  0  0  0  0  0  0  0  0
  -20.5167    3.1063  -13.9552 C   0  0  0  0  0  0  0  0  0  0  0  0
  -21.3646    2.1184  -14.6665 N   0  0  0  0  0  0  0  0  0  0  0  0
  -22.7111    2.0749  -14.1066 C   0  0  0  0  0  0  0  0  0  0  0  0
  -20.7175    0.7902  -14.5817 C   0  0  0  0  0  0  0  0  0  0  0  0
  -19.2862    0.8080  -15.1656 C   0  0  0  0  0  0  0  0  0  0  0  0
  -16.5882    2.9798  -16.3696 O   0  0  0  0  0  0  0  0  0  0  0  0
  -16.0227    4.2860  -16.4717 C   0  0  0  0  0  0  0  0  0  0  0  0
 16 17  1  0  0  0
 17 10  1  0  0  0
 10 11  1  0  0  0
 10 15  2  0  0  0
 11 12  2  0  0  0
 12 13  1  0  0  0
 13  7  1  0  0  0
 13 14  2  0  0  0
  7  8  1  0  0  0
  7  1  1  0  0  0
  8  9  2  0  0  0
  8 20  1  0  0  0
 20 21  1  0  0  0
 21 22  1  0  0  0
 21 27  2  0  0  0
 22 23  1  0  0  0
 22 24  2  0  0  0
 24 25  1  0  0  0
 25 26  2  0  0  0
 26 27  1  0  0  0
 27 28  1  0  0  0
  1  2  1  0  0  0
  1  6  2  0  0  0
  2  3  2  0  0  0
  3  4  1  0  0  0
  4  5  2  0  0  0
  5 29  1  0  0  0
  5  6  1  0  0  0
 29 31  1  0  0  0
 29 30  1  0  0  0
 31 32  1  0  0  0
 31 36  2  0  0  0
 32 33  2  0  0  0
 33 34  1  0  0  0
 34 37  1  0  0  0
 34 35  2  0  0  0
 37 38  1  0  0  0
 37 43  1  0  0  0
 38 39  1  0  0  0
 39 40  1  0  0  0
 40 41  1  0  0  0
 40 42  1  0  0  0
 42 43  1  0  0  0
 35 44  1  0  0  0
 35 36  1  0  0  0
 44 45  1  0  0  0
 14 18  1  0  0  0
 14 15  1  0  0  0
 18 19  1  0  0  0
M  END
> <minimizedAffinity>
-7.66847

$$$$
