CHEMBL46642


 24 27  0  0  0  0  0  0  0  0999 V2000
  -29.1814   -4.4910   -4.2915 C   0  0  0  0  0  0  0  0  0  0  0  0
  -30.3839   -4.0993   -3.8504 N   0  0  0  0  0  0  0  0  0  0  0  0
  -31.3602   -5.0149   -3.8221 C   0  0  0  0  0  0  0  0  0  0  0  0
  -31.1830   -6.3155   -4.2155 C   0  0  0  0  0  0  0  0  0  0  0  0
  -29.9163   -6.6495   -4.6554 C   0  0  0  0  0  0  0  0  0  0  0  0
  -28.9206   -5.7378   -4.7063 N   0  0  0  0  0  0  0  0  0  0  0  0
  -29.6267   -7.9980   -5.0373 N   0  0  0  0  0  0  0  0  0  0  0  0
  -28.8285   -8.8907   -4.3425 C   0  0  0  0  0  0  0  0  0  0  0  0
  -28.7924  -10.0416   -5.0866 C   0  0  0  0  0  0  0  0  0  0  0  0
  -29.5294   -9.9020   -6.2203 N   0  0  0  0  0  0  0  0  0  0  0  0
  -30.0387   -8.6827   -6.1802 C   0  0  0  0  0  0  0  0  0  0  0  0
  -30.9588   -8.1817   -7.3017 C   0  0  0  0  0  0  0  0  0  0  0  0
  -32.4582   -8.2596   -7.0891 C   0  0  0  0  0  0  0  0  0  0  0  0
  -31.8034   -9.2049   -8.0356 C   0  0  0  0  0  0  0  0  0  0  0  0
  -28.1184   -3.5827   -4.3178 N   0  0  0  0  0  0  0  0  0  0  0  0
  -27.8741   -3.3695   -3.3587 H   0  0  0  0  0  0  0  0  0  0  0  0
  -28.1150    1.3310   -4.7432 C   0  0  0  0  0  0  0  0  0  0  0  0
  -28.0657   -0.0233   -5.3859 C   0  0  0  0  0  0  0  0  0  0  0  0
  -27.9197   -0.1575   -6.7730 C   0  0  0  0  0  0  0  0  0  0  0  0
  -27.8607   -1.4237   -7.3621 C   0  0  0  0  0  0  0  0  0  0  0  0
  -27.7031   -1.5972   -8.8423 C   0  0  0  0  0  0  0  0  0  0  0  0
  -27.9321   -2.5572   -6.5450 C   0  0  0  0  0  0  0  0  0  0  0  0
  -28.0418   -2.4493   -5.1528 C   0  0  0  0  0  0  0  0  0  0  0  0
  -28.1462   -1.1744   -4.5883 C   0  0  0  0  0  0  0  0  0  0  0  0
 17 18  1  0  0  0
 18 19  1  0  0  0
 18 24  2  0  0  0
 19 20  2  0  0  0
 20 21  1  0  0  0
 20 22  1  0  0  0
 22 23  2  0  0  0
 23 15  1  0  0  0
 23 24  1  0  0  0
 15  1  1  0  0  0
 15 16  1  0  0  0
  1  2  1  0  0  0
  1  6  2  0  0  0
  2  3  2  0  0  0
  3  4  1  0  0  0
  4  5  2  0  0  0
  5  7  1  0  0  0
  5  6  1  0  0  0
  7  8  1  0  0  0
  7 11  1  0  0  0
  8  9  2  0  0  0
  9 10  1  0  0  0
 10 11  2  0  0  0
 11 12  1  0  0  0
 12 13  1  0  0  0
 12 14  1  0  0  0
 13 14  1  0  0  0
M  END
> <minimizedAffinity>
-8.05734

$$$$
