CHEMBL3899200


 38 42  0  0  0  0  0  0  0  0999 V2000
  -23.5658   -1.3940  -11.7965 C   0  0  0  0  0  0  0  0  0  0  0  0
  -22.9281   -2.0930  -11.0096 O   0  0  0  0  0  0  0  0  0  0  0  0
  -22.8262   -0.5035  -12.7480 C   0  0  0  0  0  0  0  0  0  0  0  0
  -22.3811   -0.9149  -14.0192 C   0  0  0  0  0  0  0  0  0  0  0  0
  -21.6474   -0.0506  -14.8650 C   0  0  0  0  0  0  0  0  0  0  0  0
  -21.5427    1.3018  -14.4915 C   0  0  0  0  0  0  0  0  0  0  0  0
  -21.0329    2.5458  -14.9983 C   0  0  0  0  0  0  0  0  0  0  0  0
  -22.0329    3.4305  -14.7946 N   0  0  0  0  0  0  0  0  0  0  0  0
  -22.4594    3.0436  -13.5745 N   0  0  0  0  0  0  0  0  0  0  0  0
  -22.2503    1.7051  -13.3623 C   0  0  0  0  0  0  0  0  0  0  0  0
  -22.7235    0.8419  -12.3799 C   0  0  0  0  0  0  0  0  0  0  0  0
  -23.0252    3.6838  -13.0334 H   0  0  0  0  0  0  0  0  0  0  0  0
  -19.7262    3.1481  -14.7607 C   0  0  0  0  0  0  0  0  0  0  0  0
  -18.8289    3.4440  -15.7214 C   0  0  0  0  0  0  0  0  0  0  0  0
  -17.3751    3.2325  -15.5249 C   0  0  0  0  0  0  0  0  0  0  0  0
  -16.4699    4.1983  -15.9555 C   0  0  0  0  0  0  0  0  0  0  0  0
  -15.1078    3.8947  -15.9720 C   0  0  0  0  0  0  0  0  0  0  0  0
  -14.6828    2.6340  -15.5722 C   0  0  0  0  0  0  0  0  0  0  0  0
  -15.6430    1.7299  -15.1547 C   0  0  0  0  0  0  0  0  0  0  0  0
  -16.9685    2.0024  -15.1203 N   0  0  0  0  0  0  0  0  0  0  0  0
  -27.0847   -1.5143  -10.4139 C   0  0  0  0  0  0  0  0  0  0  0  0
  -27.8256   -1.4668  -11.5950 C   0  0  0  0  0  0  0  0  0  0  0  0
  -27.1945   -1.4843  -12.8369 C   0  0  0  0  0  0  0  0  0  0  0  0
  -25.8093   -1.5256  -12.9118 C   0  0  0  0  0  0  0  0  0  0  0  0
  -25.0471   -1.4573  -11.7437 C   0  0  0  0  0  0  0  0  0  0  0  0
  -25.6861   -1.4762  -10.4924 C   0  0  0  0  0  0  0  0  0  0  0  0
  -27.9059   -2.7515   -8.3975 C   0  0  0  0  0  0  0  0  0  0  0  0
  -27.5877   -3.8802   -8.7625 O   0  0  0  0  0  0  0  0  0  0  0  0
  -27.6752   -1.5931   -9.1364 N   0  0  0  0  0  0  0  0  0  0  0  0
  -27.8676   -0.7295   -8.6373 H   0  0  0  0  0  0  0  0  0  0  0  0
  -29.7295   -2.7602   -4.9323 C   0  0  0  0  0  0  0  0  0  0  0  0
  -29.2549   -1.4718   -5.1507 C   0  0  0  0  0  0  0  0  0  0  0  0
  -28.5670   -1.3592   -6.3923 C   0  0  0  0  0  0  0  0  0  0  0  0
  -28.5309   -2.5481   -7.0965 C   0  0  0  0  0  0  0  0  0  0  0  0
  -29.3252   -3.7942   -6.2385 S   0  0  0  0  0  0  0  0  0  0  0  0
  -31.2374   -4.5703   -4.0181 C   0  0  0  0  0  0  0  0  0  0  0  0
  -30.4739   -3.2882   -3.7999 C   0  0  0  0  0  0  0  0  0  0  0  0
  -30.4967   -2.7565   -2.6893 O   0  0  0  0  0  0  0  0  0  0  0  0
 36 37  1  0  0  0
 37 38  2  0  0  0
 37 31  1  0  0  0
 31 32  2  0  0  0
 31 35  1  0  0  0
 32 33  1  0  0  0
 33 34  2  0  0  0
 34 27  1  0  0  0
 34 35  1  0  0  0
 27 28  2  0  0  0
 27 29  1  0  0  0
 29 21  1  0  0  0
 29 30  1  0  0  0
 21 22  1  0  0  0
 21 26  2  0  0  0
 22 23  2  0  0  0
 23 24  1  0  0  0
 24 25  2  0  0  0
 25  1  1  0  0  0
 25 26  1  0  0  0
  1  2  2  0  0  0
  1  3  1  0  0  0
  3  4  1  0  0  0
  3 11  2  0  0  0
  4  5  2  0  0  0
  5  6  1  0  0  0
  6  7  1  0  0  0
  6 10  2  0  0  0
  7 13  1  0  0  0
  7  8  2  0  0  0
 13 14  2  0  0  0
 14 15  1  0  0  0
 15 16  1  0  0  0
 15 20  2  0  0  0
 16 17  2  0  0  0
 17 18  1  0  0  0
 18 19  2  0  0  0
 19 20  1  0  0  0
  8  9  1  0  0  0
  9 10  1  0  0  0
  9 12  1  0  0  0
 10 11  1  0  0  0
M  END
> <minimizedAffinity>
-10.59470

$$$$
