CHEMBL223236


 36 39  0  0  0  0  0  0  0  0999 V2000
  -29.0402   -4.0800   -6.5021 C   0  0  0  0  0  0  0  0  0  0  0  0
  -29.5814   -4.1943   -7.7782 C   0  0  0  0  0  0  0  0  0  0  0  0
  -29.1928   -3.3410   -8.8145 C   0  0  0  0  0  0  0  0  0  0  0  0
  -28.3475   -2.2547   -8.5767 C   0  0  0  0  0  0  0  0  0  0  0  0
  -27.8641   -2.0668   -7.2860 C   0  0  0  0  0  0  0  0  0  0  0  0
  -28.1983   -2.9755   -6.2619 C   0  0  0  0  0  0  0  0  0  0  0  0
  -29.1347   -8.5916   -4.9795 N   0  0  0  0  0  0  0  0  0  0  0  0
  -28.6193   -8.6317   -6.2145 N   0  0  0  0  0  0  0  0  0  0  0  0
  -28.5690   -7.3588   -6.5873 C   0  0  0  0  0  0  0  0  0  0  0  0
  -28.0528   -7.0360   -7.7822 N   0  0  0  0  0  0  0  0  0  0  0  0
  -29.1131   -6.4667   -5.6020 C   0  0  0  0  0  0  0  0  0  0  0  0
  -29.3602   -5.0620   -5.4460 C   0  0  0  0  0  0  0  0  0  0  0  0
  -29.9491   -4.6336   -4.2340 C   0  0  0  0  0  0  0  0  0  0  0  0
  -30.2627   -5.5160   -3.2052 C   0  0  0  0  0  0  0  0  0  0  0  0
  -30.0104   -6.8760   -3.3416 C   0  0  0  0  0  0  0  0  0  0  0  0
  -29.4562   -7.3268   -4.5479 C   0  0  0  0  0  0  0  0  0  0  0  0
  -27.6252   -7.7852   -8.3150 H   0  0  0  0  0  0  0  0  0  0  0  0
  -27.6468   -6.1244   -7.9535 H   0  0  0  0  0  0  0  0  0  0  0  0
  -29.2392   -9.8291   -4.2328 C   0  0  0  0  0  0  0  0  0  0  0  0
  -27.8940  -10.4941   -3.9792 C   0  0  0  0  0  0  0  0  0  0  0  0
  -25.7702   -9.4719   -3.9590 C   0  0  0  0  0  0  0  0  0  0  0  0
  -27.0338   -9.5651   -3.3124 O   0  0  0  0  0  0  0  0  0  0  0  0
  -27.9570   -1.3604   -9.6032 N   0  0  0  0  0  0  0  0  0  0  0  0
  -27.0396   -1.6741  -10.5867 C   0  0  0  0  0  0  0  0  0  0  0  0
  -26.5554   -2.7876  -10.7528 O   0  0  0  0  0  0  0  0  0  0  0  0
  -26.6952   -0.5792  -11.3679 N   0  0  0  0  0  0  0  0  0  0  0  0
  -28.5363   -0.5522   -9.7698 H   0  0  0  0  0  0  0  0  0  0  0  0
  -26.5742    0.2778  -10.8450 H   0  0  0  0  0  0  0  0  0  0  0  0
  -25.7456   -0.7896  -12.4035 C   0  0  0  0  0  0  0  0  0  0  0  0
  -24.4452   -0.2854  -12.2960 C   0  0  0  0  0  0  0  0  0  0  0  0
  -23.5761   -0.2972  -13.3918 C   0  0  0  0  0  0  0  0  0  0  0  0
  -22.2287    0.3548  -13.2943 C   0  0  0  0  0  0  0  0  0  0  0  0
  -24.0162   -0.8543  -14.5977 C   0  0  0  0  0  0  0  0  0  0  0  0
  -25.2936   -1.4178  -14.6939 C   0  0  0  0  0  0  0  0  0  0  0  0
  -26.1432   -1.3967  -13.5919 C   0  0  0  0  0  0  0  0  0  0  0  0
  -27.3907   -1.8784  -13.7114 F   0  0  0  0  0  0  0  0  0  0  0  0
 21 22  1  0  0  0
 22 20  1  0  0  0
 20 19  1  0  0  0
 19  7  1  0  0  0
  7  8  1  0  0  0
  7 16  1  0  0  0
  8  9  2  0  0  0
  9 10  1  0  0  0
  9 11  1  0  0  0
 10 17  1  0  0  0
 10 18  1  0  0  0
 11 12  1  0  0  0
 11 16  2  0  0  0
 12  1  1  0  0  0
 12 13  2  0  0  0
  1  2  1  0  0  0
  1  6  2  0  0  0
  2  3  2  0  0  0
  3  4  1  0  0  0
  4 23  1  0  0  0
  4  5  2  0  0  0
 23 24  1  0  0  0
 23 27  1  0  0  0
 24 25  2  0  0  0
 24 26  1  0  0  0
 26 29  1  0  0  0
 26 28  1  0  0  0
 29 30  1  0  0  0
 29 35  2  0  0  0
 30 31  2  0  0  0
 31 32  1  0  0  0
 31 33  1  0  0  0
 33 34  2  0  0  0
 34 35  1  0  0  0
 35 36  1  0  0  0
  5  6  1  0  0  0
 13 14  1  0  0  0
 14 15  2  0  0  0
 15 16  1  0  0  0
M  END
> <minimizedAffinity>
-8.77037

$$$$
