CHEMBL3973125


 36 39  0  0  0  0  0  0  0  0999 V2000
  -29.6874   -9.6838   -6.8708 C   0  0  0  0  0  0  0  0  0  0  0  0
  -30.9876  -10.1998   -6.9014 C   0  0  0  0  0  0  0  0  0  0  0  0
  -32.0869   -9.3712   -7.1122 C   0  0  0  0  0  0  0  0  0  0  0  0
  -31.9063   -8.0032   -7.2610 C   0  0  0  0  0  0  0  0  0  0  0  0
  -30.6319   -7.4451   -7.1212 C   0  0  0  0  0  0  0  0  0  0  0  0
  -29.5193   -8.2887   -6.9475 C   0  0  0  0  0  0  0  0  0  0  0  0
  -27.1760   -9.1257   -5.5444 O   0  0  0  0  0  0  0  0  0  0  0  0
  -27.3586  -10.1891   -6.1257 C   0  0  0  0  0  0  0  0  0  0  0  0
  -28.5400  -10.5227   -6.7860 N   0  0  0  0  0  0  0  0  0  0  0  0
  -26.4204  -11.2106   -6.1714 N   0  0  0  0  0  0  0  0  0  0  0  0
  -28.6709  -11.4889   -7.0408 H   0  0  0  0  0  0  0  0  0  0  0  0
  -26.6389  -12.0111   -6.7430 H   0  0  0  0  0  0  0  0  0  0  0  0
  -25.1569  -11.2174   -5.5221 C   0  0  0  0  0  0  0  0  0  0  0  0
  -24.9900  -11.1353   -4.1351 C   0  0  0  0  0  0  0  0  0  0  0  0
  -23.7188  -11.1577   -3.5553 C   0  0  0  0  0  0  0  0  0  0  0  0
  -22.5880  -11.2761   -4.3557 C   0  0  0  0  0  0  0  0  0  0  0  0
  -22.7207  -11.3743   -5.7465 C   0  0  0  0  0  0  0  0  0  0  0  0
  -24.0092  -11.3312   -6.3178 C   0  0  0  0  0  0  0  0  0  0  0  0
  -21.5044  -11.5471   -6.6162 C   0  0  0  0  0  0  0  0  0  0  0  0
  -21.7873  -11.9514   -7.8865 F   0  0  0  0  0  0  0  0  0  0  0  0
  -20.7949  -10.3912   -6.7444 F   0  0  0  0  0  0  0  0  0  0  0  0
  -20.6327  -12.4660   -6.1172 F   0  0  0  0  0  0  0  0  0  0  0  0
  -30.4083   -6.0803   -7.2256 O   0  0  0  0  0  0  0  0  0  0  0  0
  -30.1278   -5.3752   -6.0512 C   0  0  0  0  0  0  0  0  0  0  0  0
  -30.1583   -3.9936   -6.1060 C   0  0  0  0  0  0  0  0  0  0  0  0
  -29.8674   -3.3360   -4.9246 C   0  0  0  0  0  0  0  0  0  0  0  0
  -29.6160   -4.0063   -3.7934 N   0  0  0  0  0  0  0  0  0  0  0  0
  -29.5942   -5.3371   -3.8494 C   0  0  0  0  0  0  0  0  0  0  0  0
  -29.8109   -6.0654   -4.9418 N   0  0  0  0  0  0  0  0  0  0  0  0
  -29.8188   -1.9266   -4.9084 N   0  0  0  0  0  0  0  0  0  0  0  0
  -28.6600   -1.1989   -5.1192 C   0  0  0  0  0  0  0  0  0  0  0  0
  -27.5391   -1.6421   -5.3200 O   0  0  0  0  0  0  0  0  0  0  0  0
  -30.6861   -1.4279   -4.8020 H   0  0  0  0  0  0  0  0  0  0  0  0
  -28.7881    0.2907   -5.1336 C   0  0  0  0  0  0  0  0  0  0  0  0
  -29.9586    1.1012   -5.6198 C   0  0  0  0  0  0  0  0  0  0  0  0
  -28.7077    1.0329   -6.4484 C   0  0  0  0  0  0  0  0  0  0  0  0
  7  8  2  0  0  0
  8  9  1  0  0  0
  8 10  1  0  0  0
  9  1  1  0  0  0
  9 11  1  0  0  0
  1  2  1  0  0  0
  1  6  2  0  0  0
  2  3  2  0  0  0
  3  4  1  0  0  0
  4  5  2  0  0  0
  5 23  1  0  0  0
  5  6  1  0  0  0
 23 24  1  0  0  0
 24 25  1  0  0  0
 24 29  2  0  0  0
 25 26  2  0  0  0
 26 30  1  0  0  0
 26 27  1  0  0  0
 30 31  1  0  0  0
 30 33  1  0  0  0
 31 32  2  0  0  0
 31 34  1  0  0  0
 34 35  1  0  0  0
 34 36  1  0  0  0
 35 36  1  0  0  0
 27 28  2  0  0  0
 28 29  1  0  0  0
 10 13  1  0  0  0
 10 12  1  0  0  0
 13 14  1  0  0  0
 13 18  2  0  0  0
 14 15  2  0  0  0
 15 16  1  0  0  0
 16 17  2  0  0  0
 17 19  1  0  0  0
 17 18  1  0  0  0
 19 20  1  0  0  0
 19 21  1  0  0  0
 19 22  1  0  0  0
M  END
> <minimizedAffinity>
-9.16821

$$$$
