CHEMBL96149


 23 26  0  0  0  0  0  0  0  0999 V2000
  -28.7301   -4.4903   -4.9082 C   0  0  0  0  0  0  0  0  0  0  0  0
  -28.9280   -5.2792   -3.7554 C   0  0  0  0  0  0  0  0  0  0  0  0
  -29.0031   -6.5849   -4.0136 N   0  0  0  0  0  0  0  0  0  0  0  0
  -28.8781   -6.6640   -5.3597 N   0  0  0  0  0  0  0  0  0  0  0  0
  -28.9623   -7.8101   -6.1446 C   0  0  0  0  0  0  0  0  0  0  0  0
  -28.8395   -7.7303   -7.4780 C   0  0  0  0  0  0  0  0  0  0  0  0
  -28.5831   -6.3557   -8.0042 C   0  0  0  0  0  0  0  0  0  0  0  0
  -28.5038   -5.2661   -7.3005 N   0  0  0  0  0  0  0  0  0  0  0  0
  -28.6734   -5.4081   -5.9445 C   0  0  0  0  0  0  0  0  0  0  0  0
  -28.5011   -0.2520   -5.4296 C   0  0  0  0  0  0  0  0  0  0  0  0
  -27.3473   -0.9911   -5.1777 C   0  0  0  0  0  0  0  0  0  0  0  0
  -27.4249   -2.3747   -4.9863 C   0  0  0  0  0  0  0  0  0  0  0  0
  -28.6522   -3.0455   -5.0545 C   0  0  0  0  0  0  0  0  0  0  0  0
  -29.8103   -2.2947   -5.2919 C   0  0  0  0  0  0  0  0  0  0  0  0
  -29.7315   -0.9102   -5.4801 C   0  0  0  0  0  0  0  0  0  0  0  0
  -29.5688    1.5570   -6.5315 C   0  0  0  0  0  0  0  0  0  0  0  0
  -28.5559    1.0971   -5.6444 O   0  0  0  0  0  0  0  0  0  0  0  0
  -28.9778   -8.8858   -8.3578 C   0  0  0  0  0  0  0  0  0  0  0  0
  -28.0279   -9.1216   -9.3532 C   0  0  0  0  0  0  0  0  0  0  0  0
  -28.2058  -10.2187  -10.1788 C   0  0  0  0  0  0  0  0  0  0  0  0
  -29.2450  -11.0735  -10.0740 N   0  0  0  0  0  0  0  0  0  0  0  0
  -30.1494  -10.8224   -9.1043 C   0  0  0  0  0  0  0  0  0  0  0  0
  -30.0622   -9.7520   -8.2290 C   0  0  0  0  0  0  0  0  0  0  0  0
 16 17  1  0  0  0
 17 10  1  0  0  0
 10 11  1  0  0  0
 10 15  2  0  0  0
 11 12  2  0  0  0
 12 13  1  0  0  0
 13  1  1  0  0  0
 13 14  2  0  0  0
  1  2  1  0  0  0
  1  9  2  0  0  0
  2  3  2  0  0  0
  3  4  1  0  0  0
  4  5  1  0  0  0
  4  9  1  0  0  0
  5  6  2  0  0  0
  6 18  1  0  0  0
  6  7  1  0  0  0
 18 19  1  0  0  0
 18 23  2  0  0  0
 19 20  2  0  0  0
 20 21  1  0  0  0
 21 22  2  0  0  0
 22 23  1  0  0  0
  7  8  2  0  0  0
  8  9  1  0  0  0
 14 15  1  0  0  0
M  END
> <minimizedAffinity>
-7.77158

$$$$
