CHEMBL45015


 22 24  0  0  0  0  0  0  0  0999 V2000
  -30.0259   -5.0758   -5.2076 C   0  0  0  0  0  0  0  0  0  0  0  0
  -29.5801   -5.4959   -4.0180 N   0  0  0  0  0  0  0  0  0  0  0  0
  -29.2866   -6.7937   -3.8665 C   0  0  0  0  0  0  0  0  0  0  0  0
  -29.4405   -7.7105   -4.8664 C   0  0  0  0  0  0  0  0  0  0  0  0
  -29.9130   -7.2187   -6.0703 C   0  0  0  0  0  0  0  0  0  0  0  0
  -30.2085   -5.9105   -6.2402 N   0  0  0  0  0  0  0  0  0  0  0  0
  -30.0974   -8.1139   -7.1694 N   0  0  0  0  0  0  0  0  0  0  0  0
  -29.0980   -8.6112   -7.9955 C   0  0  0  0  0  0  0  0  0  0  0  0
  -29.7128   -9.4567   -8.8875 C   0  0  0  0  0  0  0  0  0  0  0  0
  -31.0567   -9.4916   -8.6724 N   0  0  0  0  0  0  0  0  0  0  0  0
  -31.2599   -8.6837   -7.6557 C   0  0  0  0  0  0  0  0  0  0  0  0
  -32.8216   -8.3417   -7.0574 Cl  0  0  0  0  0  0  0  0  0  0  0  0
  -30.2954   -3.7257   -5.4389 N   0  0  0  0  0  0  0  0  0  0  0  0
  -31.2926   -3.5892   -5.5186 H   0  0  0  0  0  0  0  0  0  0  0  0
  -27.4599   -1.9761   -9.1045 C   0  0  0  0  0  0  0  0  0  0  0  0
  -28.0655   -1.7871   -7.7466 C   0  0  0  0  0  0  0  0  0  0  0  0
  -27.9372   -0.5971   -7.0341 C   0  0  0  0  0  0  0  0  0  0  0  0
  -28.5324   -0.4619   -5.7742 C   0  0  0  0  0  0  0  0  0  0  0  0
  -28.3863    0.8120   -4.9952 C   0  0  0  0  0  0  0  0  0  0  0  0
  -29.2903   -1.5241   -5.2480 C   0  0  0  0  0  0  0  0  0  0  0  0
  -29.4746   -2.7149   -5.9652 C   0  0  0  0  0  0  0  0  0  0  0  0
  -28.8086   -2.8350   -7.1900 C   0  0  0  0  0  0  0  0  0  0  0  0
 15 16  1  0  0  0
 16 17  1  0  0  0
 16 22  2  0  0  0
 17 18  2  0  0  0
 18 19  1  0  0  0
 18 20  1  0  0  0
 20 21  2  0  0  0
 21 13  1  0  0  0
 21 22  1  0  0  0
 13  1  1  0  0  0
 13 14  1  0  0  0
  1  2  1  0  0  0
  1  6  2  0  0  0
  2  3  2  0  0  0
  3  4  1  0  0  0
  4  5  2  0  0  0
  5  7  1  0  0  0
  5  6  1  0  0  0
  7  8  1  0  0  0
  7 11  1  0  0  0
  8  9  2  0  0  0
  9 10  1  0  0  0
 10 11  2  0  0  0
 11 12  1  0  0  0
M  END
> <minimizedAffinity>
-7.85705

$$$$
