CHEMBL3690589


 38 42  0  0  0  0  0  0  0  0999 V2000
  -22.8142    1.4614  -13.8992 C   0  0  0  0  0  0  0  0  0  0  0  0
  -23.0592    2.7879  -13.5768 C   0  0  0  0  0  0  0  0  0  0  0  0
  -21.9634    3.5827  -13.7787 N   0  0  0  0  0  0  0  0  0  0  0  0
  -21.0339    2.7734  -14.2354 C   0  0  0  0  0  0  0  0  0  0  0  0
  -19.6791    3.0259  -14.5972 C   0  0  0  0  0  0  0  0  0  0  0  0
  -18.8953    2.0469  -15.1174 C   0  0  0  0  0  0  0  0  0  0  0  0
  -19.4721    0.7068  -15.3009 C   0  0  0  0  0  0  0  0  0  0  0  0
  -20.7480    0.4649  -14.9679 C   0  0  0  0  0  0  0  0  0  0  0  0
  -21.5208    1.4803  -14.4018 N   0  0  0  0  0  0  0  0  0  0  0  0
  -25.0102   -1.2096  -12.3314 C   0  0  0  0  0  0  0  0  0  0  0  0
  -25.3968   -1.9209  -13.4627 C   0  0  0  0  0  0  0  0  0  0  0  0
  -24.9308   -1.5427  -14.7239 C   0  0  0  0  0  0  0  0  0  0  0  0
  -24.0672   -0.4552  -14.8614 C   0  0  0  0  0  0  0  0  0  0  0  0
  -23.6775    0.2859  -13.7415 C   0  0  0  0  0  0  0  0  0  0  0  0
  -24.1799   -0.0936  -12.4852 C   0  0  0  0  0  0  0  0  0  0  0  0
  -27.7141   -1.4679  -11.1133 O   0  0  0  0  0  0  0  0  0  0  0  0
  -26.6648   -1.6597  -10.5137 C   0  0  0  0  0  0  0  0  0  0  0  0
  -26.6543   -2.0488   -9.1891 N   0  0  0  0  0  0  0  0  0  0  0  0
  -25.3894   -1.5499  -11.0128 N   0  0  0  0  0  0  0  0  0  0  0  0
  -25.8430   -1.7719   -8.6551 H   0  0  0  0  0  0  0  0  0  0  0  0
  -24.6435   -1.7868  -10.3775 H   0  0  0  0  0  0  0  0  0  0  0  0
  -27.9254   -2.0611   -8.4565 C   0  0  0  0  0  0  0  0  0  0  0  0
  -28.4085   -3.4546   -8.0320 C   0  0  0  0  0  0  0  0  0  0  0  0
  -29.7009   -3.6644   -8.3786 F   0  0  0  0  0  0  0  0  0  0  0  0
  -27.6634   -4.4440   -8.5629 F   0  0  0  0  0  0  0  0  0  0  0  0
  -28.3451   -3.5736   -6.6823 F   0  0  0  0  0  0  0  0  0  0  0  0
  -17.5460    2.3994  -15.4673 C   0  0  0  0  0  0  0  0  0  0  0  0
  -17.0934    3.5924  -15.8141 N   0  0  0  0  0  0  0  0  0  0  0  0
  -15.7447    3.6037  -16.0959 N   0  0  0  0  0  0  0  0  0  0  0  0
  -15.1999    2.4143  -15.9701 C   0  0  0  0  0  0  0  0  0  0  0  0
  -16.2955    1.1946  -15.4879 S   0  0  0  0  0  0  0  0  0  0  0  0
  -13.7494    2.1224  -16.1699 C   0  0  0  0  0  0  0  0  0  0  0  0
  -12.9946    1.9390  -14.8426 C   0  0  0  0  0  0  0  0  0  0  0  0
  -12.9820    3.1662  -14.0220 N   0  0  0  0  0  0  0  0  0  0  0  0
  -12.4111    4.3299  -14.7195 C   0  0  0  0  0  0  0  0  0  0  0  0
  -10.9126    4.2115  -14.5319 C   0  0  0  0  0  0  0  0  0  0  0  0
  -10.7718    3.6170  -13.1433 C   0  0  0  0  0  0  0  0  0  0  0  0
  -12.1320    3.0012  -12.8271 C   0  0  0  0  0  0  0  0  0  0  0  0
 16 17  2  0  0  0
 17 18  1  0  0  0
 17 19  1  0  0  0
 18 22  1  0  0  0
 18 20  1  0  0  0
 22 23  1  0  0  0
 23 24  1  0  0  0
 23 25  1  0  0  0
 23 26  1  0  0  0
 19 10  1  0  0  0
 19 21  1  0  0  0
 10 11  1  0  0  0
 10 15  2  0  0  0
 11 12  2  0  0  0
 12 13  1  0  0  0
 13 14  2  0  0  0
 14  1  1  0  0  0
 14 15  1  0  0  0
  1  2  2  0  0  0
  1  9  1  0  0  0
  2  3  1  0  0  0
  3  4  2  0  0  0
  4  5  1  0  0  0
  4  9  1  0  0  0
  5  6  2  0  0  0
  6 27  1  0  0  0
  6  7  1  0  0  0
 27 28  2  0  0  0
 27 31  1  0  0  0
 28 29  1  0  0  0
 29 30  2  0  0  0
 30 32  1  0  0  0
 30 31  1  0  0  0
 32 33  1  0  0  0
 33 34  1  0  0  0
 34 35  1  0  0  0
 34 38  1  0  0  0
 35 36  1  0  0  0
 36 37  1  0  0  0
 37 38  1  0  0  0
  7  8  2  0  0  0
  8  9  1  0  0  0
M  END
> <minimizedAffinity>
-9.69595

$$$$
