CHEMBL3911718


 42 46  0  0  0  0  0  0  0  0999 V2000
  -15.9661    2.0791  -16.4833 O   0  0  0  0  0  0  0  0  0  0  0  0
  -14.8794    2.5888  -15.7915 C   0  0  0  0  0  0  0  0  0  0  0  0
  -14.5647    3.9500  -15.7643 C   0  0  0  0  0  0  0  0  0  0  0  0
  -13.4088    4.3643  -15.1375 C   0  0  0  0  0  0  0  0  0  0  0  0
  -12.5726    3.5658  -14.4570 N   0  0  0  0  0  0  0  0  0  0  0  0
  -12.9260    2.2542  -14.3943 C   0  0  0  0  0  0  0  0  0  0  0  0
  -12.2000    1.2577  -13.6863 C   0  0  0  0  0  0  0  0  0  0  0  0
  -12.7872    0.0095  -13.7546 C   0  0  0  0  0  0  0  0  0  0  0  0
  -14.1935    0.0479  -14.7364 S   0  0  0  0  0  0  0  0  0  0  0  0
  -14.0548    1.7360  -15.0332 C   0  0  0  0  0  0  0  0  0  0  0  0
  -12.3239   -1.2046  -13.0991 C   0  0  0  0  0  0  0  0  0  0  0  0
  -11.4960   -1.1983  -12.1927 O   0  0  0  0  0  0  0  0  0  0  0  0
  -12.8876   -2.3814  -13.5496 N   0  0  0  0  0  0  0  0  0  0  0  0
  -13.5654   -2.3268  -14.2991 H   0  0  0  0  0  0  0  0  0  0  0  0
  -12.5707   -3.6762  -12.9705 C   0  0  0  0  0  0  0  0  0  0  0  0
  -13.8199   -4.4694  -12.5904 C   0  0  0  0  0  0  0  0  0  0  0  0
  -14.3028   -4.1246  -11.2347 C   0  0  0  0  0  0  0  0  0  0  0  0
  -14.4878   -5.0593  -10.2504 N   0  0  0  0  0  0  0  0  0  0  0  0
  -14.9437   -4.4019   -9.1932 N   0  0  0  0  0  0  0  0  0  0  0  0
  -15.0142   -3.1243   -9.5900 N   0  0  0  0  0  0  0  0  0  0  0  0
  -14.6356   -2.8825  -10.8551 N   0  0  0  0  0  0  0  0  0  0  0  0
  -15.3331   -2.3863   -8.9686 H   0  0  0  0  0  0  0  0  0  0  0  0
  -19.7706    2.1703  -14.7274 C   0  0  0  0  0  0  0  0  0  0  0  0
  -18.9763    1.0279  -14.5926 C   0  0  0  0  0  0  0  0  0  0  0  0
  -17.6883    0.9928  -15.1242 C   0  0  0  0  0  0  0  0  0  0  0  0
  -17.2030    2.0711  -15.8680 C   0  0  0  0  0  0  0  0  0  0  0  0
  -17.9834    3.2241  -15.9878 C   0  0  0  0  0  0  0  0  0  0  0  0
  -19.2749    3.2693  -15.4346 C   0  0  0  0  0  0  0  0  0  0  0  0
  -23.0414    1.2176  -13.4545 N   0  0  0  0  0  0  0  0  0  0  0  0
  -21.8121    1.0638  -14.0836 C   0  0  0  0  0  0  0  0  0  0  0  0
  -21.3870    0.0136  -14.5475 O   0  0  0  0  0  0  0  0  0  0  0  0
  -21.0364    2.2263  -14.0794 N   0  0  0  0  0  0  0  0  0  0  0  0
  -23.2140    2.0898  -12.9790 H   0  0  0  0  0  0  0  0  0  0  0  0
  -21.0710    2.7476  -13.2169 H   0  0  0  0  0  0  0  0  0  0  0  0
  -26.0093   -1.3744  -10.4009 C   0  0  0  0  0  0  0  0  0  0  0  0
  -25.4600   -1.1042  -11.7799 C   0  0  0  0  0  0  0  0  0  0  0  0
  -25.8827   -1.9038  -12.8392 C   0  0  0  0  0  0  0  0  0  0  0  0
  -25.4028   -1.6627  -14.1212 C   0  0  0  0  0  0  0  0  0  0  0  0
  -24.4944   -0.6300  -14.3445 C   0  0  0  0  0  0  0  0  0  0  0  0
  -24.1911   -0.4028  -15.6277 F   0  0  0  0  0  0  0  0  0  0  0  0
  -24.0110    0.1765  -13.3007 C   0  0  0  0  0  0  0  0  0  0  0  0
  -24.5351   -0.0635  -12.0079 C   0  0  0  0  0  0  0  0  0  0  0  0
 35 36  1  0  0  0
 36 37  1  0  0  0
 36 42  2  0  0  0
 37 38  2  0  0  0
 38 39  1  0  0  0
 39 40  1  0  0  0
 39 41  2  0  0  0
 41 29  1  0  0  0
 41 42  1  0  0  0
 29 30  1  0  0  0
 29 33  1  0  0  0
 30 31  2  0  0  0
 30 32  1  0  0  0
 32 23  1  0  0  0
 32 34  1  0  0  0
 23 24  1  0  0  0
 23 28  2  0  0  0
 24 25  2  0  0  0
 25 26  1  0  0  0
 26  1  1  0  0  0
 26 27  2  0  0  0
  1  2  1  0  0  0
  2  3  1  0  0  0
  2 10  2  0  0  0
  3  4  2  0  0  0
  4  5  1  0  0  0
  5  6  2  0  0  0
  6  7  1  0  0  0
  6 10  1  0  0  0
  7  8  2  0  0  0
  8 11  1  0  0  0
  8  9  1  0  0  0
 11 12  2  0  0  0
 11 13  1  0  0  0
 13 15  1  0  0  0
 13 14  1  0  0  0
 15 16  1  0  0  0
 16 17  1  0  0  0
 17 18  1  0  0  0
 17 21  2  0  0  0
 18 19  2  0  0  0
 19 20  1  0  0  0
 20 21  1  0  0  0
 20 22  1  0  0  0
  9 10  1  0  0  0
 27 28  1  0  0  0
M  END
> <minimizedAffinity>
-10.39426

$$$$
