CHEMBL3906533


 23 25  0  0  0  0  0  0  0  0999 V2000
  -27.9634   -2.3819   -9.8876 N   0  0  0  0  0  0  0  0  0  0  0  0
  -28.3502   -3.3016  -10.0634 H   0  0  0  0  0  0  0  0  0  0  0  0
  -27.9062   -2.1154   -8.4956 C   0  0  0  0  0  0  0  0  0  0  0  0
  -27.5330   -0.8949   -8.0450 N   0  0  0  0  0  0  0  0  0  0  0  0
  -27.5547   -0.5816   -6.7184 N   0  0  0  0  0  0  0  0  0  0  0  0
  -27.9377   -1.5190   -5.8379 C   0  0  0  0  0  0  0  0  0  0  0  0
  -28.2960   -2.8066   -6.2137 C   0  0  0  0  0  0  0  0  0  0  0  0
  -28.6607   -3.7698   -5.2570 C   0  0  0  0  0  0  0  0  0  0  0  0
  -29.0438   -5.0503   -5.6486 C   0  0  0  0  0  0  0  0  0  0  0  0
  -29.0913   -5.3729   -6.9984 C   0  0  0  0  0  0  0  0  0  0  0  0
  -28.7329   -4.4216   -7.9567 C   0  0  0  0  0  0  0  0  0  0  0  0
  -28.3013   -3.1226   -7.5850 C   0  0  0  0  0  0  0  0  0  0  0  0
  -25.2990   -1.2689  -12.9752 C   0  0  0  0  0  0  0  0  0  0  0  0
  -26.6208   -1.5939  -13.2880 C   0  0  0  0  0  0  0  0  0  0  0  0
  -27.5161   -1.9384  -12.2758 C   0  0  0  0  0  0  0  0  0  0  0  0
  -27.1324   -1.9296  -10.9312 C   0  0  0  0  0  0  0  0  0  0  0  0
  -25.7956   -1.6107  -10.6339 C   0  0  0  0  0  0  0  0  0  0  0  0
  -24.8857   -1.2722  -11.6429 C   0  0  0  0  0  0  0  0  0  0  0  0
  -24.3502   -0.8528  -14.0324 C   0  0  0  0  0  0  0  0  0  0  0  0
  -24.6165   -0.8417  -15.2218 O   0  0  0  0  0  0  0  0  0  0  0  0
  -23.1546   -0.5719  -13.4613 O   0  0  0  0  0  0  0  0  0  0  0  0
  -21.3592    0.6529  -14.4255 C   0  0  0  0  0  0  0  0  0  0  0  0
  -22.6640    0.7579  -13.6595 C   0  0  0  0  0  0  0  0  0  0  0  0
 22 23  1  0  0  0
 23 21  1  0  0  0
 21 19  1  0  0  0
 19 20  2  0  0  0
 19 13  1  0  0  0
 13 14  1  0  0  0
 13 18  2  0  0  0
 14 15  2  0  0  0
 15 16  1  0  0  0
 16  1  1  0  0  0
 16 17  2  0  0  0
  1  3  1  0  0  0
  1  2  1  0  0  0
  3  4  1  0  0  0
  3 12  2  0  0  0
  4  5  2  0  0  0
  5  6  1  0  0  0
  6  7  2  0  0  0
  7  8  1  0  0  0
  7 12  1  0  0  0
  8  9  2  0  0  0
  9 10  1  0  0  0
 10 11  2  0  0  0
 11 12  1  0  0  0
 17 18  1  0  0  0
M  END
> <minimizedAffinity>
-8.24291

$$$$
