CHEMBL255743


 33 36  0  0  0  0  0  0  0  0999 V2000
  -29.9272   -6.5607   -5.5454 C   0  0  0  0  0  0  0  0  0  0  0  0
  -28.8288   -7.3846   -5.3003 C   0  0  0  0  0  0  0  0  0  0  0  0
  -28.6141   -8.5296   -6.0746 C   0  0  0  0  0  0  0  0  0  0  0  0
  -29.4978   -8.8978   -7.1047 C   0  0  0  0  0  0  0  0  0  0  0  0
  -30.6693   -8.1311   -7.2308 C   0  0  0  0  0  0  0  0  0  0  0  0
  -30.8811   -6.9667   -6.4730 C   0  0  0  0  0  0  0  0  0  0  0  0
  -29.1762  -10.0282   -8.0037 C   0  0  0  0  0  0  0  0  0  0  0  0
  -29.7493  -11.3056   -7.8090 C   0  0  0  0  0  0  0  0  0  0  0  0
  -29.4069  -12.3717   -8.6303 C   0  0  0  0  0  0  0  0  0  0  0  0
  -28.5495  -12.3112   -9.6649 N   0  0  0  0  0  0  0  0  0  0  0  0
  -28.0194  -11.0859   -9.8272 C   0  0  0  0  0  0  0  0  0  0  0  0
  -27.1236  -10.7527  -10.7962 N   0  0  0  0  0  0  0  0  0  0  0  0
  -26.7107   -9.4784  -10.7429 N   0  0  0  0  0  0  0  0  0  0  0  0
  -27.3611   -8.9862   -9.6893 C   0  0  0  0  0  0  0  0  0  0  0  0
  -27.1405   -7.7233   -9.2879 N   0  0  0  0  0  0  0  0  0  0  0  0
  -28.2441   -9.9339   -9.0760 C   0  0  0  0  0  0  0  0  0  0  0  0
  -26.7529  -11.3643  -11.5116 H   0  0  0  0  0  0  0  0  0  0  0  0
  -26.3539   -7.2679   -9.7396 H   0  0  0  0  0  0  0  0  0  0  0  0
  -27.1846   -7.5178   -8.2950 H   0  0  0  0  0  0  0  0  0  0  0  0
  -29.6187   -3.0356   -4.7418 N   0  0  0  0  0  0  0  0  0  0  0  0
  -29.4569   -4.1785   -5.5039 C   0  0  0  0  0  0  0  0  0  0  0  0
  -28.9213   -4.2291   -6.6041 O   0  0  0  0  0  0  0  0  0  0  0  0
  -30.0480   -5.2966   -4.9132 N   0  0  0  0  0  0  0  0  0  0  0  0
  -30.1918   -3.1197   -3.9142 H   0  0  0  0  0  0  0  0  0  0  0  0
  -30.9352   -5.1106   -4.4682 H   0  0  0  0  0  0  0  0  0  0  0  0
  -30.8959    1.5753   -5.9875 C   0  0  0  0  0  0  0  0  0  0  0  0
  -29.8288    0.5476   -5.7360 C   0  0  0  0  0  0  0  0  0  0  0  0
  -28.4852    0.8829   -5.9199 C   0  0  0  0  0  0  0  0  0  0  0  0
  -27.4950   -0.0585   -5.6599 C   0  0  0  0  0  0  0  0  0  0  0  0
  -27.8389   -1.3389   -5.2324 C   0  0  0  0  0  0  0  0  0  0  0  0
  -26.8177   -2.1294   -4.8822 F   0  0  0  0  0  0  0  0  0  0  0  0
  -29.1792   -1.7310   -5.0907 C   0  0  0  0  0  0  0  0  0  0  0  0
  -30.1679   -0.7551   -5.3206 C   0  0  0  0  0  0  0  0  0  0  0  0
 26 27  1  0  0  0
 27 28  1  0  0  0
 27 33  2  0  0  0
 28 29  2  0  0  0
 29 30  1  0  0  0
 30 31  1  0  0  0
 30 32  2  0  0  0
 32 20  1  0  0  0
 32 33  1  0  0  0
 20 21  1  0  0  0
 20 24  1  0  0  0
 21 22  2  0  0  0
 21 23  1  0  0  0
 23  1  1  0  0  0
 23 25  1  0  0  0
  1  2  1  0  0  0
  1  6  2  0  0  0
  2  3  2  0  0  0
  3  4  1  0  0  0
  4  7  1  0  0  0
  4  5  2  0  0  0
  7  8  1  0  0  0
  7 16  2  0  0  0
  8  9  2  0  0  0
  9 10  1  0  0  0
 10 11  2  0  0  0
 11 12  1  0  0  0
 11 16  1  0  0  0
 12 13  1  0  0  0
 12 17  1  0  0  0
 13 14  2  0  0  0
 14 15  1  0  0  0
 14 16  1  0  0  0
 15 18  1  0  0  0
 15 19  1  0  0  0
  5  6  1  0  0  0
M  END
> <minimizedAffinity>
-9.54391

$$$$
