CHEMBL2409785


 35 39  0  0  0  0  0  0  0  0999 V2000
  -28.2776   -9.1725   -3.4927 C   0  0  0  0  0  0  0  0  0  0  0  0
  -28.8884   -7.9354   -4.0951 C   0  0  0  0  0  0  0  0  0  0  0  0
  -29.6891   -7.1508   -3.2400 C   0  0  0  0  0  0  0  0  0  0  0  0
  -30.2878   -5.9759   -3.6846 C   0  0  0  0  0  0  0  0  0  0  0  0
  -30.0306   -5.5218   -4.9689 C   0  0  0  0  0  0  0  0  0  0  0  0
  -29.2675   -6.3051   -5.8396 C   0  0  0  0  0  0  0  0  0  0  0  0
  -28.6936   -7.5274   -5.4354 C   0  0  0  0  0  0  0  0  0  0  0  0
  -27.9591   -8.3621   -6.3421 N   0  0  0  0  0  0  0  0  0  0  0  0
  -28.4687   -9.4633   -7.0443 C   0  0  0  0  0  0  0  0  0  0  0  0
  -29.6629   -9.7446   -7.0500 O   0  0  0  0  0  0  0  0  0  0  0  0
  -26.9756   -8.1690   -6.4483 H   0  0  0  0  0  0  0  0  0  0  0  0
  -27.5239  -10.3068   -7.7759 C   0  0  0  0  0  0  0  0  0  0  0  0
  -27.6023  -10.5346   -9.4708 S   0  0  0  0  0  0  0  0  0  0  0  0
  -26.0769  -11.3164   -9.5076 C   0  0  0  0  0  0  0  0  0  0  0  0
  -25.5262  -11.4749   -8.2510 C   0  0  0  0  0  0  0  0  0  0  0  0
  -24.1881  -12.0888   -7.9714 C   0  0  0  0  0  0  0  0  0  0  0  0
  -26.4041  -10.9372   -7.2494 C   0  0  0  0  0  0  0  0  0  0  0  0
  -26.0018  -11.0501   -5.5757 Cl  0  0  0  0  0  0  0  0  0  0  0  0
  -30.5419   -4.3350   -5.4593 O   0  0  0  0  0  0  0  0  0  0  0  0
  -29.7259   -3.5051   -6.2127 C   0  0  0  0  0  0  0  0  0  0  0  0
  -29.4242   -2.2072   -5.6133 C   0  0  0  0  0  0  0  0  0  0  0  0
  -28.6100   -1.3168   -6.2234 C   0  0  0  0  0  0  0  0  0  0  0  0
  -28.0309   -1.6415   -7.4862 C   0  0  0  0  0  0  0  0  0  0  0  0
  -27.2147   -1.0017   -8.3020 N   0  0  0  0  0  0  0  0  0  0  0  0
  -26.9900   -1.9176   -9.2975 C   0  0  0  0  0  0  0  0  0  0  0  0
  -27.6743   -3.0491   -9.1769 N   0  0  0  0  0  0  0  0  0  0  0  0
  -28.3519   -2.8830   -8.0325 N   0  0  0  0  0  0  0  0  0  0  0  0
  -29.2135   -3.7815   -7.4249 C   0  0  0  0  0  0  0  0  0  0  0  0
  -26.1200   -1.6124  -10.3121 N   0  0  0  0  0  0  0  0  0  0  0  0
  -26.5335   -1.3510  -11.5939 C   0  0  0  0  0  0  0  0  0  0  0  0
  -27.6784   -1.4232  -12.0275 O   0  0  0  0  0  0  0  0  0  0  0  0
  -25.1458   -1.6910  -10.0785 H   0  0  0  0  0  0  0  0  0  0  0  0
  -25.4760   -1.0090  -12.5943 C   0  0  0  0  0  0  0  0  0  0  0  0
  -25.4369   -1.7142  -13.9289 C   0  0  0  0  0  0  0  0  0  0  0  0
  -24.2885   -1.8534  -12.9705 C   0  0  0  0  0  0  0  0  0  0  0  0
  1  2  1  0  0  0
  2  3  1  0  0  0
  2  7  2  0  0  0
  3  4  2  0  0  0
  4  5  1  0  0  0
  5 19  1  0  0  0
  5  6  2  0  0  0
 19 20  1  0  0  0
 20 21  1  0  0  0
 20 28  2  0  0  0
 21 22  2  0  0  0
 22 23  1  0  0  0
 23 24  2  0  0  0
 23 27  1  0  0  0
 24 25  1  0  0  0
 25 29  1  0  0  0
 25 26  2  0  0  0
 29 30  1  0  0  0
 29 32  1  0  0  0
 30 31  2  0  0  0
 30 33  1  0  0  0
 33 34  1  0  0  0
 33 35  1  0  0  0
 34 35  1  0  0  0
 26 27  1  0  0  0
 27 28  1  0  0  0
  6  7  1  0  0  0
  7  8  1  0  0  0
  8  9  1  0  0  0
  8 11  1  0  0  0
  9 10  2  0  0  0
  9 12  1  0  0  0
 12 13  1  0  0  0
 12 17  2  0  0  0
 13 14  1  0  0  0
 14 15  2  0  0  0
 15 16  1  0  0  0
 15 17  1  0  0  0
 17 18  1  0  0  0
M  END
> <minimizedAffinity>
-8.94424

$$$$
