CHEMBL494469


 31 35  0  0  0  0  0  0  0  0999 V2000
  -27.0460   -1.8475   -9.8938 C   0  0  0  0  0  0  0  0  0  0  0  0
  -27.3653   -3.1345   -9.4486 C   0  0  0  0  0  0  0  0  0  0  0  0
  -27.9564   -3.3471   -8.2049 C   0  0  0  0  0  0  0  0  0  0  0  0
  -28.0722   -2.3192   -7.2435 C   0  0  0  0  0  0  0  0  0  0  0  0
  -28.4509   -2.4973   -5.8872 C   0  0  0  0  0  0  0  0  0  0  0  0
  -28.5744   -1.4101   -5.0920 N   0  0  0  0  0  0  0  0  0  0  0  0
  -28.3779   -0.1352   -5.5558 N   0  0  0  0  0  0  0  0  0  0  0  0
  -27.9898    0.0386   -6.8242 C   0  0  0  0  0  0  0  0  0  0  0  0
  -27.8049   -1.0134   -7.6921 C   0  0  0  0  0  0  0  0  0  0  0  0
  -27.3542   -0.8013   -9.0142 C   0  0  0  0  0  0  0  0  0  0  0  0
  -28.6452   -2.2545  -12.5338 C   0  0  0  0  0  0  0  0  0  0  0  0
  -27.1950   -1.8418  -12.4650 C   0  0  0  0  0  0  0  0  0  0  0  0
  -26.5369   -1.6475  -13.6988 C   0  0  0  0  0  0  0  0  0  0  0  0
  -25.2186   -1.1978  -13.7624 C   0  0  0  0  0  0  0  0  0  0  0  0
  -24.5201   -0.9459  -12.5923 C   0  0  0  0  0  0  0  0  0  0  0  0
  -25.1510   -1.1647  -11.3603 C   0  0  0  0  0  0  0  0  0  0  0  0
  -26.4859   -1.6294  -11.2546 C   0  0  0  0  0  0  0  0  0  0  0  0
  -23.1304   -0.4138  -12.5787 C   0  0  0  0  0  0  0  0  0  0  0  0
  -22.3655   -0.7183  -11.6672 O   0  0  0  0  0  0  0  0  0  0  0  0
  -22.7733    0.3836  -13.6475 N   0  0  0  0  0  0  0  0  0  0  0  0
  -23.3959    0.4510  -14.4422 H   0  0  0  0  0  0  0  0  0  0  0  0
  -21.4527    0.9116  -13.7834 C   0  0  0  0  0  0  0  0  0  0  0  0
  -21.2034    2.1402  -14.6129 C   0  0  0  0  0  0  0  0  0  0  0  0
  -20.7133    0.8048  -15.0888 C   0  0  0  0  0  0  0  0  0  0  0  0
  -28.7302   -3.7682   -5.3671 N   0  0  0  0  0  0  0  0  0  0  0  0
  -27.8177   -4.2639   -4.3047 C   0  0  0  0  0  0  0  0  0  0  0  0
  -27.8319   -5.7958   -4.4007 C   0  0  0  0  0  0  0  0  0  0  0  0
  -29.1426   -6.2803   -4.0838 O   0  0  0  0  0  0  0  0  0  0  0  0
  -30.1117   -5.7517   -5.0090 C   0  0  0  0  0  0  0  0  0  0  0  0
  -30.1249   -4.1932   -5.0742 C   0  0  0  0  0  0  0  0  0  0  0  0
  -31.1749   -3.7943   -6.1113 C   0  0  0  0  0  0  0  0  0  0  0  0
 11 12  1  0  0  0
 12 13  1  0  0  0
 12 17  2  0  0  0
 13 14  2  0  0  0
 14 15  1  0  0  0
 15 18  1  0  0  0
 15 16  2  0  0  0
 18 19  2  0  0  0
 18 20  1  0  0  0
 20 22  1  0  0  0
 20 21  1  0  0  0
 22 23  1  0  0  0
 22 24  1  0  0  0
 23 24  1  0  0  0
 16 17  1  0  0  0
 17  1  1  0  0  0
  1  2  1  0  0  0
  1 10  2  0  0  0
  2  3  2  0  0  0
  3  4  1  0  0  0
  4  5  1  0  0  0
  4  9  2  0  0  0
  5 25  1  0  0  0
  5  6  2  0  0  0
 25 26  1  0  0  0
 25 30  1  0  0  0
 26 27  1  0  0  0
 27 28  1  0  0  0
 28 29  1  0  0  0
 29 30  1  0  0  0
 30 31  1  0  0  0
  6  7  1  0  0  0
  7  8  2  0  0  0
  8  9  1  0  0  0
  9 10  1  0  0  0
M  END
> <minimizedAffinity>
-9.59624

$$$$
