CHEMBL398989


 35 39  0  0  0  0  0  0  0  0999 V2000
  -17.5414    2.3773  -15.7227 N   0  0  0  0  0  0  0  0  0  0  0  0
  -17.3234    3.3423  -15.9320 H   0  0  0  0  0  0  0  0  0  0  0  0
  -16.3924    1.7539  -15.2310 C   0  0  0  0  0  0  0  0  0  0  0  0
  -15.2247    2.3591  -15.4485 N   0  0  0  0  0  0  0  0  0  0  0  0
  -14.1256    1.6912  -15.0359 C   0  0  0  0  0  0  0  0  0  0  0  0
  -14.1351    0.4571  -14.4113 C   0  0  0  0  0  0  0  0  0  0  0  0
  -12.6195   -0.2804  -14.0757 Cl  0  0  0  0  0  0  0  0  0  0  0  0
  -15.3875   -0.0765  -14.1599 C   0  0  0  0  0  0  0  0  0  0  0  0
  -16.4974    0.5787  -14.5910 N   0  0  0  0  0  0  0  0  0  0  0  0
  -15.7245   -1.3167  -13.3983 C   0  0  0  0  0  0  0  0  0  0  0  0
  -15.6471   -1.3043  -11.9862 C   0  0  0  0  0  0  0  0  0  0  0  0
  -15.7543   -2.4647  -11.2031 C   0  0  0  0  0  0  0  0  0  0  0  0
  -16.0447   -3.6810  -11.8341 C   0  0  0  0  0  0  0  0  0  0  0  0
  -16.1758   -5.0252  -11.3933 C   0  0  0  0  0  0  0  0  0  0  0  0
  -16.6576   -5.7608  -12.4519 C   0  0  0  0  0  0  0  0  0  0  0  0
  -16.6897   -4.9409  -13.5485 N   0  0  0  0  0  0  0  0  0  0  0  0
  -16.2515   -3.6804  -13.2095 C   0  0  0  0  0  0  0  0  0  0  0  0
  -16.0328   -2.5469  -14.0109 C   0  0  0  0  0  0  0  0  0  0  0  0
  -17.0264   -5.2028  -14.4646 H   0  0  0  0  0  0  0  0  0  0  0  0
  -21.4782    1.7175  -14.2945 C   0  0  0  0  0  0  0  0  0  0  0  0
  -20.9317    3.0049  -14.3233 C   0  0  0  0  0  0  0  0  0  0  0  0
  -19.6459    3.2259  -14.8148 C   0  0  0  0  0  0  0  0  0  0  0  0
  -18.8473    2.1675  -15.2453 C   0  0  0  0  0  0  0  0  0  0  0  0
  -19.4011    0.8863  -15.2623 C   0  0  0  0  0  0  0  0  0  0  0  0
  -20.6929    0.6599  -14.7631 C   0  0  0  0  0  0  0  0  0  0  0  0
  -22.8513    1.4362  -13.7138 C   0  0  0  0  0  0  0  0  0  0  0  0
  -23.4880    0.1378  -14.2437 C   0  0  0  0  0  0  0  0  0  0  0  0
  -26.3241   -1.0465  -12.1044 N   0  0  0  0  0  0  0  0  0  0  0  0
  -26.0167   -1.5621  -13.4564 C   0  0  0  0  0  0  0  0  0  0  0  0
  -24.5519   -2.0153  -13.6620 C   0  0  0  0  0  0  0  0  0  0  0  0
  -23.5390   -1.0019  -13.3086 N   0  0  0  0  0  0  0  0  0  0  0  0
  -23.8377   -0.4969  -11.9446 C   0  0  0  0  0  0  0  0  0  0  0  0
  -25.3054   -0.0353  -11.7368 C   0  0  0  0  0  0  0  0  0  0  0  0
  -27.3446   -1.7827   -9.9303 C   0  0  0  0  0  0  0  0  0  0  0  0
  -26.3843   -2.0930  -11.0717 C   0  0  0  0  0  0  0  0  0  0  0  0
 34 35  1  0  0  0
 35 28  1  0  0  0
 28 29  1  0  0  0
 28 33  1  0  0  0
 29 30  1  0  0  0
 30 31  1  0  0  0
 31 27  1  0  0  0
 31 32  1  0  0  0
 27 26  1  0  0  0
 26 20  1  0  0  0
 20 21  1  0  0  0
 20 25  2  0  0  0
 21 22  2  0  0  0
 22 23  1  0  0  0
 23  1  1  0  0  0
 23 24  2  0  0  0
  1  3  1  0  0  0
  1  2  1  0  0  0
  3  4  1  0  0  0
  3  9  2  0  0  0
  4  5  2  0  0  0
  5  6  1  0  0  0
  6  7  1  0  0  0
  6  8  2  0  0  0
  8 10  1  0  0  0
  8  9  1  0  0  0
 10 11  1  0  0  0
 10 18  2  0  0  0
 11 12  2  0  0  0
 12 13  1  0  0  0
 13 14  1  0  0  0
 13 17  2  0  0  0
 14 15  2  0  0  0
 15 16  1  0  0  0
 16 17  1  0  0  0
 16 19  1  0  0  0
 17 18  1  0  0  0
 24 25  1  0  0  0
 32 33  1  0  0  0
M  END
> <minimizedAffinity>
-10.30165

$$$$
