CHEMBL3954298


 37 40  0  0  0  0  0  0  0  0999 V2000
  -29.0411   -5.3789   -5.7063 C   0  0  0  0  0  0  0  0  0  0  0  0
  -29.7513   -5.7571   -6.8381 C   0  0  0  0  0  0  0  0  0  0  0  0
  -29.6787   -7.0034   -7.3622 N   0  0  0  0  0  0  0  0  0  0  0  0
  -28.8904   -7.8830   -6.7115 C   0  0  0  0  0  0  0  0  0  0  0  0
  -28.7915   -9.1836   -7.1689 C   0  0  0  0  0  0  0  0  0  0  0  0
  -28.0321  -10.1338   -6.4794 C   0  0  0  0  0  0  0  0  0  0  0  0
  -27.3147   -9.8043   -5.3175 C   0  0  0  0  0  0  0  0  0  0  0  0
  -27.3682   -8.4639   -4.9154 C   0  0  0  0  0  0  0  0  0  0  0  0
  -28.1567   -7.5097   -5.5627 C   0  0  0  0  0  0  0  0  0  0  0  0
  -28.2166   -6.2525   -5.0743 N   0  0  0  0  0  0  0  0  0  0  0  0
  -28.6727   -1.9435   -4.6911 N   0  0  0  0  0  0  0  0  0  0  0  0
  -28.2287   -3.0379   -5.3760 C   0  0  0  0  0  0  0  0  0  0  0  0
  -29.1382   -4.0457   -5.1454 C   0  0  0  0  0  0  0  0  0  0  0  0
  -30.0888   -3.4554   -4.2808 C   0  0  0  0  0  0  0  0  0  0  0  0
  -29.8069   -2.1784   -3.9940 N   0  0  0  0  0  0  0  0  0  0  0  0
  -28.0896   -0.6180   -4.6984 C   0  0  0  0  0  0  0  0  0  0  0  0
  -30.7816    1.5519   -6.2590 C   0  0  0  0  0  0  0  0  0  0  0  0
  -30.0485    0.6528   -5.4055 N   0  0  0  0  0  0  0  0  0  0  0  0
  -28.7559    0.2798   -5.7122 C   0  0  0  0  0  0  0  0  0  0  0  0
  -28.1980    0.6007   -6.7600 O   0  0  0  0  0  0  0  0  0  0  0  0
  -30.3871    0.4810   -4.4610 H   0  0  0  0  0  0  0  0  0  0  0  0
  -26.6026  -10.8223   -4.6391 N   0  0  0  0  0  0  0  0  0  0  0  0
  -25.1711  -10.9661   -4.7374 C   0  0  0  0  0  0  0  0  0  0  0  0
  -24.5035  -10.8063   -5.9703 C   0  0  0  0  0  0  0  0  0  0  0  0
  -23.1204  -10.9918   -6.0826 C   0  0  0  0  0  0  0  0  0  0  0  0
  -22.3720  -11.3134   -4.9493 C   0  0  0  0  0  0  0  0  0  0  0  0
  -22.9927  -11.4485   -3.7124 C   0  0  0  0  0  0  0  0  0  0  0  0
  -24.3826  -11.2966   -3.6207 C   0  0  0  0  0  0  0  0  0  0  0  0
  -22.3802  -10.8844   -7.2296 O   0  0  0  0  0  0  0  0  0  0  0  0
  -21.1538  -10.1703   -7.1479 C   0  0  0  0  0  0  0  0  0  0  0  0
  -22.3670  -11.7212   -2.5255 O   0  0  0  0  0  0  0  0  0  0  0  0
  -23.1790  -12.2075   -1.4627 C   0  0  0  0  0  0  0  0  0  0  0  0
  -27.1429  -11.4340   -3.3913 C   0  0  0  0  0  0  0  0  0  0  0  0
  -28.3244  -12.4051   -3.5066 C   0  0  0  0  0  0  0  0  0  0  0  0
  -29.6616  -11.8935   -2.9975 C   0  0  0  0  0  0  0  0  0  0  0  0
  -30.3447  -11.2269   -4.0601 O   0  0  0  0  0  0  0  0  0  0  0  0
  -29.7244  -10.6096   -4.4842 H   0  0  0  0  0  0  0  0  0  0  0  0
 17 18  1  0  0  0
 18 19  1  0  0  0
 18 21  1  0  0  0
 19 20  2  0  0  0
 19 16  1  0  0  0
 16 11  1  0  0  0
 11 12  1  0  0  0
 11 15  1  0  0  0
 12 13  2  0  0  0
 13  1  1  0  0  0
 13 14  1  0  0  0
  1  2  1  0  0  0
  1 10  2  0  0  0
  2  3  2  0  0  0
  3  4  1  0  0  0
  4  5  1  0  0  0
  4  9  2  0  0  0
  5  6  2  0  0  0
  6  7  1  0  0  0
  7 22  1  0  0  0
  7  8  2  0  0  0
 22 33  1  0  0  0
 22 23  1  0  0  0
 33 34  1  0  0  0
 34 35  1  0  0  0
 35 36  1  0  0  0
 36 37  1  0  0  0
 23 24  1  0  0  0
 23 28  2  0  0  0
 24 25  2  0  0  0
 25 29  1  0  0  0
 25 26  1  0  0  0
 29 30  1  0  0  0
 26 27  2  0  0  0
 27 31  1  0  0  0
 27 28  1  0  0  0
 31 32  1  0  0  0
  8  9  1  0  0  0
  9 10  1  0  0  0
 14 15  2  0  0  0
M  END
> <minimizedAffinity>
-7.39470

$$$$
