CHEMBL2088097


 25 27  0  0  0  0  0  0  0  0999 V2000
  -25.9062   -1.8594  -11.4934 C   0  0  0  0  0  0  0  0  0  0  0  0
  -26.9386   -1.8472  -12.3381 N   0  0  0  0  0  0  0  0  0  0  0  0
  -26.6504   -1.6473  -13.6423 C   0  0  0  0  0  0  0  0  0  0  0  0
  -25.3864   -1.3866  -14.1184 C   0  0  0  0  0  0  0  0  0  0  0  0
  -25.1183   -1.1021  -15.7909 Cl  0  0  0  0  0  0  0  0  0  0  0  0
  -24.3842   -1.3350  -13.1654 C   0  0  0  0  0  0  0  0  0  0  0  0
  -24.6511   -1.6099  -11.8701 N   0  0  0  0  0  0  0  0  0  0  0  0
  -26.1877   -2.0564  -10.1479 N   0  0  0  0  0  0  0  0  0  0  0  0
  -25.9296   -3.0181   -9.9504 H   0  0  0  0  0  0  0  0  0  0  0  0
  -27.5734   -1.7787   -9.7848 C   0  0  0  0  0  0  0  0  0  0  0  0
  -29.3662   -4.2486   -5.6999 C   0  0  0  0  0  0  0  0  0  0  0  0
  -28.6776   -3.3623   -6.6589 C   0  0  0  0  0  0  0  0  0  0  0  0
  -28.7273   -3.3977   -8.0682 C   0  0  0  0  0  0  0  0  0  0  0  0
  -27.9387   -2.3459   -8.4639 C   0  0  0  0  0  0  0  0  0  0  0  0
  -27.4334   -1.7229   -7.3627 O   0  0  0  0  0  0  0  0  0  0  0  0
  -27.8966   -2.3620   -6.2223 N   0  0  0  0  0  0  0  0  0  0  0  0
  -23.1002   -0.8639  -13.5014 N   0  0  0  0  0  0  0  0  0  0  0  0
  -22.3752   -1.5688  -13.4657 H   0  0  0  0  0  0  0  0  0  0  0  0
  -22.7089    0.3915  -13.8000 C   0  0  0  0  0  0  0  0  0  0  0  0
  -21.4550    0.7609  -14.3436 C   0  0  0  0  0  0  0  0  0  0  0  0
  -21.4243    2.1348  -14.3283 C   0  0  0  0  0  0  0  0  0  0  0  0
  -20.3444    3.0876  -14.6580 C   0  0  0  0  0  0  0  0  0  0  0  0
  -22.6565    2.5098  -13.8759 N   0  0  0  0  0  0  0  0  0  0  0  0
  -23.4443    1.4740  -13.5312 N   0  0  0  0  0  0  0  0  0  0  0  0
  -23.0146    3.4501  -13.7425 H   0  0  0  0  0  0  0  0  0  0  0  0
 11 12  1  0  0  0
 12 13  1  0  0  0
 12 16  2  0  0  0
 13 14  2  0  0  0
 14 10  1  0  0  0
 14 15  1  0  0  0
 10  8  1  0  0  0
  8  1  1  0  0  0
  8  9  1  0  0  0
  1  2  1  0  0  0
  1  7  2  0  0  0
  2  3  2  0  0  0
  3  4  1  0  0  0
  4  5  1  0  0  0
  4  6  2  0  0  0
  6 17  1  0  0  0
  6  7  1  0  0  0
 17 19  1  0  0  0
 17 18  1  0  0  0
 19 20  1  0  0  0
 19 24  2  0  0  0
 20 21  2  0  0  0
 21 22  1  0  0  0
 21 23  1  0  0  0
 23 24  1  0  0  0
 23 25  1  0  0  0
 15 16  1  0  0  0
M  END
> <minimizedAffinity>
-8.68378

$$$$
