CHEMBL1270795


 25 28  0  0  0  0  0  0  0  0999 V2000
  -15.9849    0.4447  -14.1627 C   0  0  0  0  0  0  0  0  0  0  0  0
  -14.9322    1.2156  -14.4798 C   0  0  0  0  0  0  0  0  0  0  0  0
  -15.1477    2.3734  -15.2053 N   0  0  0  0  0  0  0  0  0  0  0  0
  -14.3191    3.3873  -15.6184 C   0  0  0  0  0  0  0  0  0  0  0  0
  -15.1615    4.3196  -16.1964 C   0  0  0  0  0  0  0  0  0  0  0  0
  -16.4698    3.8878  -16.1950 N   0  0  0  0  0  0  0  0  0  0  0  0
  -16.4156    2.7255  -15.5833 C   0  0  0  0  0  0  0  0  0  0  0  0
  -17.5140    1.8240  -15.2916 C   0  0  0  0  0  0  0  0  0  0  0  0
  -17.2636    0.7507  -14.5780 N   0  0  0  0  0  0  0  0  0  0  0  0
  -12.8555    3.4820  -15.4499 C   0  0  0  0  0  0  0  0  0  0  0  0
  -12.1038    4.0910  -14.4260 C   0  0  0  0  0  0  0  0  0  0  0  0
  -10.7892    4.0053  -14.6449 N   0  0  0  0  0  0  0  0  0  0  0  0
  -10.7044    3.3351  -15.8060 N   0  0  0  0  0  0  0  0  0  0  0  0
  -11.9188    2.9826  -16.3210 C   0  0  0  0  0  0  0  0  0  0  0  0
   -9.7833    3.1634  -16.1956 H   0  0  0  0  0  0  0  0  0  0  0  0
  -14.0376   -1.4496  -13.8882 C   0  0  0  0  0  0  0  0  0  0  0  0
  -15.6615   -1.0008  -13.2284 S   0  0  0  0  0  0  0  0  0  0  0  0
  -18.7910    2.0758  -15.7637 N   0  0  0  0  0  0  0  0  0  0  0  0
  -18.8342    2.2812  -16.7585 H   0  0  0  0  0  0  0  0  0  0  0  0
  -19.9509    1.8156  -15.1053 C   0  0  0  0  0  0  0  0  0  0  0  0
  -20.5550    0.5963  -14.8586 C   0  0  0  0  0  0  0  0  0  0  0  0
  -21.7916    0.7402  -14.1712 C   0  0  0  0  0  0  0  0  0  0  0  0
  -22.6710   -0.3934  -13.7830 C   0  0  0  0  0  0  0  0  0  0  0  0
  -22.1503    1.9907  -13.8860 N   0  0  0  0  0  0  0  0  0  0  0  0
  -20.9841    3.0248  -14.4638 S   0  0  0  0  0  0  0  0  0  0  0  0
 16 17  1  0  0  0
 17  1  1  0  0  0
  1  2  2  0  0  0
  1  9  1  0  0  0
  2  3  1  0  0  0
  3  4  1  0  0  0
  3  7  1  0  0  0
  4 10  1  0  0  0
  4  5  2  0  0  0
 10 11  1  0  0  0
 10 14  2  0  0  0
 11 12  2  0  0  0
 12 13  1  0  0  0
 13 14  1  0  0  0
 13 15  1  0  0  0
  5  6  1  0  0  0
  6  7  2  0  0  0
  7  8  1  0  0  0
  8 18  1  0  0  0
  8  9  2  0  0  0
 18 20  1  0  0  0
 18 19  1  0  0  0
 20 21  2  0  0  0
 20 25  1  0  0  0
 21 22  1  0  0  0
 22 23  1  0  0  0
 22 24  2  0  0  0
 24 25  1  0  0  0
M  END
> <minimizedAffinity>
-6.43278

$$$$
