CHEMBL68663


 37 42  0  0  0  0  0  0  0  0999 V2000
  -13.9185   -3.4974  -18.0609 N   0  0  0  0  0  0  0  0  0  0  0  0
  -13.6621   -4.6627  -17.3469 C   0  0  0  0  0  0  0  0  0  0  0  0
  -13.5702   -5.7161  -18.1799 N   0  0  0  0  0  0  0  0  0  0  0  0
  -13.3633   -6.9235  -17.6684 C   0  0  0  0  0  0  0  0  0  0  0  0
  -13.2187   -7.2242  -16.3847 N   0  0  0  0  0  0  0  0  0  0  0  0
  -13.3205   -6.1646  -15.5599 C   0  0  0  0  0  0  0  0  0  0  0  0
  -13.5261   -4.8470  -15.9220 C   0  0  0  0  0  0  0  0  0  0  0  0
  -13.5090   -4.0574  -14.6734 C   0  0  0  0  0  0  0  0  0  0  0  0
  -13.3682   -4.9925  -13.5990 C   0  0  0  0  0  0  0  0  0  0  0  0
  -13.1925   -6.2617  -14.1949 N   0  0  0  0  0  0  0  0  0  0  0  0
  -13.9237   -3.7615  -19.0448 H   0  0  0  0  0  0  0  0  0  0  0  0
  -14.8123   -3.0999  -17.7942 H   0  0  0  0  0  0  0  0  0  0  0  0
  -13.6911   -2.5735  -14.5054 C   0  0  0  0  0  0  0  0  0  0  0  0
  -13.0147   -1.6386  -15.2847 C   0  0  0  0  0  0  0  0  0  0  0  0
  -13.4034   -0.2928  -15.3939 C   0  0  0  0  0  0  0  0  0  0  0  0
  -14.4999    0.1709  -14.6895 C   0  0  0  0  0  0  0  0  0  0  0  0
  -15.0349   -0.6601  -13.7281 C   0  0  0  0  0  0  0  0  0  0  0  0
  -14.5808   -1.9855  -13.6103 C   0  0  0  0  0  0  0  0  0  0  0  0
  -15.0466    1.4224  -14.7918 O   0  0  0  0  0  0  0  0  0  0  0  0
  -16.3985    1.5495  -15.0044 C   0  0  0  0  0  0  0  0  0  0  0  0
  -17.3324    0.5434  -14.7417 C   0  0  0  0  0  0  0  0  0  0  0  0
  -18.6796    0.7472  -15.0471 C   0  0  0  0  0  0  0  0  0  0  0  0
  -19.0972    1.9761  -15.5576 C   0  0  0  0  0  0  0  0  0  0  0  0
  -18.1742    3.0040  -15.7536 C   0  0  0  0  0  0  0  0  0  0  0  0
  -16.8255    2.7907  -15.4752 C   0  0  0  0  0  0  0  0  0  0  0  0
  -12.8407   -7.5151  -13.5313 C   0  0  0  0  0  0  0  0  0  0  0  0
  -13.9874   -8.2268  -12.7935 C   0  0  0  0  0  0  0  0  0  0  0  0
  -13.2885   -9.3755  -12.0546 C   0  0  0  0  0  0  0  0  0  0  0  0
  -11.8275   -8.9438  -11.8903 C   0  0  0  0  0  0  0  0  0  0  0  0
  -11.7648   -7.5118  -12.4259 C   0  0  0  0  0  0  0  0  0  0  0  0
  -13.1670   -4.7924  -12.0847 C   0  0  0  0  0  0  0  0  0  0  0  0
  -14.1467   -5.2031  -11.0547 N   0  0  0  0  0  0  0  0  0  0  0  0
  -15.5176   -5.4165  -11.5287 C   0  0  0  0  0  0  0  0  0  0  0  0
  -16.3127   -4.1083  -11.5809 C   0  0  0  0  0  0  0  0  0  0  0  0
  -16.3422   -3.4273  -10.3187 O   0  0  0  0  0  0  0  0  0  0  0  0
  -15.0174   -3.2187   -9.8021 C   0  0  0  0  0  0  0  0  0  0  0  0
  -14.2635   -4.5494   -9.7430 C   0  0  0  0  0  0  0  0  0  0  0  0
  1  2  1  0  0  0
  1 11  1  0  0  0
  1 12  1  0  0  0
  2  3  1  0  0  0
  2  7  2  0  0  0
  3  4  2  0  0  0
  4  5  1  0  0  0
  5  6  2  0  0  0
  6  7  1  0  0  0
  6 10  1  0  0  0
  7  8  1  0  0  0
  8 13  1  0  0  0
  8  9  2  0  0  0
 13 14  1  0  0  0
 13 18  2  0  0  0
 14 15  2  0  0  0
 15 16  1  0  0  0
 16 19  1  0  0  0
 16 17  2  0  0  0
 19 20  1  0  0  0
 20 21  1  0  0  0
 20 25  2  0  0  0
 21 22  2  0  0  0
 22 23  1  0  0  0
 23 24  2  0  0  0
 24 25  1  0  0  0
 17 18  1  0  0  0
  9 31  1  0  0  0
  9 10  1  0  0  0
 31 32  1  0  0  0
 32 33  1  0  0  0
 32 37  1  0  0  0
 33 34  1  0  0  0
 34 35  1  0  0  0
 35 36  1  0  0  0
 36 37  1  0  0  0
 10 26  1  0  0  0
 26 27  1  0  0  0
 26 30  1  0  0  0
 27 28  1  0  0  0
 28 29  1  0  0  0
 29 30  1  0  0  0
M  END
> <minimizedAffinity>
-8.66888

$$$$
