CHEMBL399605


 27 29  0  0  0  0  0  0  0  0999 V2000
  -27.4242   -2.3403  -10.4024 N   0  0  0  0  0  0  0  0  0  0  0  0
  -26.2733   -1.7714  -10.9335 C   0  0  0  0  0  0  0  0  0  0  0  0
  -25.3324   -1.3564  -10.2671 O   0  0  0  0  0  0  0  0  0  0  0  0
  -28.0861   -2.7497  -11.0494 H   0  0  0  0  0  0  0  0  0  0  0  0
  -28.4116   -2.7320   -6.2604 C   0  0  0  0  0  0  0  0  0  0  0  0
  -27.9793   -1.5146   -6.7981 C   0  0  0  0  0  0  0  0  0  0  0  0
  -27.6623   -1.3744   -8.1496 C   0  0  0  0  0  0  0  0  0  0  0  0
  -27.7363   -2.4508   -9.0255 C   0  0  0  0  0  0  0  0  0  0  0  0
  -28.1470   -3.6842   -8.5105 C   0  0  0  0  0  0  0  0  0  0  0  0
  -28.4741   -3.8221   -7.1443 C   0  0  0  0  0  0  0  0  0  0  0  0
  -30.2335   -3.1470   -4.5084 C   0  0  0  0  0  0  0  0  0  0  0  0
  -28.7347   -2.8408   -4.7598 C   0  0  0  0  0  0  0  0  0  0  0  0
  -28.3952   -1.4956   -4.0906 C   0  0  0  0  0  0  0  0  0  0  0  0
  -27.9427   -3.9599   -4.0516 C   0  0  0  0  0  0  0  0  0  0  0  0
  -26.2237   -1.7005  -12.3783 C   0  0  0  0  0  0  0  0  0  0  0  0
  -27.1933   -1.9635  -13.3332 C   0  0  0  0  0  0  0  0  0  0  0  0
  -26.6210   -1.5860  -14.5589 C   0  0  0  0  0  0  0  0  0  0  0  0
  -25.3597   -1.1832  -14.4250 N   0  0  0  0  0  0  0  0  0  0  0  0
  -25.1286   -1.2518  -13.0947 N   0  0  0  0  0  0  0  0  0  0  0  0
  -23.8251   -0.8176  -12.5954 C   0  0  0  0  0  0  0  0  0  0  0  0
  -22.7368   -0.7978  -13.6725 C   0  0  0  0  0  0  0  0  0  0  0  0
  -22.2024    0.5845  -13.9702 C   0  0  0  0  0  0  0  0  0  0  0  0
  -20.9779    0.7535  -14.6244 C   0  0  0  0  0  0  0  0  0  0  0  0
  -20.5529    2.0404  -14.9266 C   0  0  0  0  0  0  0  0  0  0  0  0
  -21.2486    3.1549  -14.6166 N   0  0  0  0  0  0  0  0  0  0  0  0
  -22.4211    2.9725  -13.9731 C   0  0  0  0  0  0  0  0  0  0  0  0
  -22.9309    1.7274  -13.6295 C   0  0  0  0  0  0  0  0  0  0  0  0
 11 12  1  0  0  0
 12 13  1  0  0  0
 12 14  1  0  0  0
 12  5  1  0  0  0
  5  6  1  0  0  0
  5 10  2  0  0  0
  6  7  2  0  0  0
  7  8  1  0  0  0
  8  1  1  0  0  0
  8  9  2  0  0  0
  1  2  1  0  0  0
  1  4  1  0  0  0
  2  3  2  0  0  0
  2 15  1  0  0  0
 15 16  2  0  0  0
 15 19  1  0  0  0
 16 17  1  0  0  0
 17 18  2  0  0  0
 18 19  1  0  0  0
 19 20  1  0  0  0
 20 21  1  0  0  0
 21 22  1  0  0  0
 22 23  1  0  0  0
 22 27  2  0  0  0
 23 24  2  0  0  0
 24 25  1  0  0  0
 25 26  2  0  0  0
 26 27  1  0  0  0
  9 10  1  0  0  0
M  END
> <minimizedAffinity>
-9.62799

$$$$
