CHEMBL3676371


 40 42  0  0  0  0  0  0  0  0999 V2000
  -15.8577    0.9356  -15.1044 C   0  0  0  0  0  0  0  0  0  0  0  0
  -14.7088    1.2604  -15.8267 C   0  0  0  0  0  0  0  0  0  0  0  0
  -14.6701    2.4254  -16.6228 C   0  0  0  0  0  0  0  0  0  0  0  0
  -13.6063    2.7843  -17.4642 C   0  0  0  0  0  0  0  0  0  0  0  0
  -13.6296    3.9164  -18.1947 N   0  0  0  0  0  0  0  0  0  0  0  0
  -14.7227    4.6745  -18.1083 C   0  0  0  0  0  0  0  0  0  0  0  0
  -15.8057    4.4063  -17.3771 N   0  0  0  0  0  0  0  0  0  0  0  0
  -15.7791    3.2838  -16.6500 C   0  0  0  0  0  0  0  0  0  0  0  0
  -16.9006    2.9544  -15.8989 C   0  0  0  0  0  0  0  0  0  0  0  0
  -16.9555    1.8043  -15.1039 C   0  0  0  0  0  0  0  0  0  0  0  0
  -15.3719   -0.3445  -13.1221 C   0  0  0  0  0  0  0  0  0  0  0  0
  -14.8693    0.5804  -12.4983 O   0  0  0  0  0  0  0  0  0  0  0  0
  -15.8688   -0.2918  -14.4145 N   0  0  0  0  0  0  0  0  0  0  0  0
  -16.7092   -0.8441  -14.5261 H   0  0  0  0  0  0  0  0  0  0  0  0
  -15.8743   -2.7519  -13.2866 C   0  0  0  0  0  0  0  0  0  0  0  0
  -15.5641   -1.6947  -12.5264 C   0  0  0  0  0  0  0  0  0  0  0  0
  -12.4876    1.9202  -17.6119 N   0  0  0  0  0  0  0  0  0  0  0  0
  -11.6314    2.4566  -17.7246 H   0  0  0  0  0  0  0  0  0  0  0  0
  -12.5077    0.7610  -18.4255 C   0  0  0  0  0  0  0  0  0  0  0  0
  -12.4409   -0.5147  -17.8485 C   0  0  0  0  0  0  0  0  0  0  0  0
  -12.5842   -1.6623  -18.6258 C   0  0  0  0  0  0  0  0  0  0  0  0
  -12.7658   -1.5504  -20.0065 C   0  0  0  0  0  0  0  0  0  0  0  0
  -13.0566   -3.1607  -20.9708 Br  0  0  0  0  0  0  0  0  0  0  0  0
  -12.7516   -0.2892  -20.6144 C   0  0  0  0  0  0  0  0  0  0  0  0
  -12.9287   -0.0882  -22.3227 Cl  0  0  0  0  0  0  0  0  0  0  0  0
  -12.6109    0.8534  -19.8183 C   0  0  0  0  0  0  0  0  0  0  0  0
  -12.6135    2.0756  -20.3799 F   0  0  0  0  0  0  0  0  0  0  0  0
  -18.1194    1.6761  -14.3825 O   0  0  0  0  0  0  0  0  0  0  0  0
  -19.2103    1.0688  -15.0783 C   0  0  0  0  0  0  0  0  0  0  0  0
  -20.5511    1.4540  -14.4484 C   0  0  0  0  0  0  0  0  0  0  0  0
  -21.5126    0.3620  -14.5296 N   0  0  0  0  0  0  0  0  0  0  0  0
  -22.7791    0.4909  -13.9986 C   0  0  0  0  0  0  0  0  0  0  0  0
  -23.2182    1.5481  -13.5532 O   0  0  0  0  0  0  0  0  0  0  0  0
  -21.1685   -0.5854  -14.6463 H   0  0  0  0  0  0  0  0  0  0  0  0
  -23.5901   -0.8080  -13.9602 C   0  0  0  0  0  0  0  0  0  0  0  0
  -24.7996   -0.6736  -13.1029 N   0  0  0  0  0  0  0  0  0  0  0  0
  -25.9198   -1.5100  -13.5789 C   0  0  0  0  0  0  0  0  0  0  0  0
  -27.0338   -1.8142  -12.5810 C   0  0  0  0  0  0  0  0  0  0  0  0
  -24.4212   -0.9456  -11.7006 C   0  0  0  0  0  0  0  0  0  0  0  0
  -23.2590   -1.9202  -11.5387 C   0  0  0  0  0  0  0  0  0  0  0  0
 15 16  2  0  0  0
 16 11  1  0  0  0
 11 12  2  0  0  0
 11 13  1  0  0  0
 13  1  1  0  0  0
 13 14  1  0  0  0
  1  2  1  0  0  0
  1 10  2  0  0  0
  2  3  2  0  0  0
  3  4  1  0  0  0
  3  8  1  0  0  0
  4 17  1  0  0  0
  4  5  2  0  0  0
 17 19  1  0  0  0
 17 18  1  0  0  0
 19 20  1  0  0  0
 19 26  2  0  0  0
 20 21  2  0  0  0
 21 22  1  0  0  0
 22 23  1  0  0  0
 22 24  2  0  0  0
 24 25  1  0  0  0
 24 26  1  0  0  0
 26 27  1  0  0  0
  5  6  1  0  0  0
  6  7  2  0  0  0
  7  8  1  0  0  0
  8  9  2  0  0  0
  9 10  1  0  0  0
 10 28  1  0  0  0
 28 29  1  0  0  0
 29 30  1  0  0  0
 30 31  1  0  0  0
 31 32  1  0  0  0
 31 34  1  0  0  0
 32 33  2  0  0  0
 32 35  1  0  0  0
 35 36  1  0  0  0
 36 37  1  0  0  0
 36 39  1  0  0  0
 37 38  1  0  0  0
 39 40  1  0  0  0
M  END
> <minimizedAffinity>
-7.71948

$$$$
