CHEMBL3907230


 34 38  0  0  0  0  0  0  0  0999 V2000
  -29.1200   -5.8711   -6.9412 C   0  0  0  0  0  0  0  0  0  0  0  0
  -28.9778   -6.7984   -7.9859 C   0  0  0  0  0  0  0  0  0  0  0  0
  -28.6284   -8.1267   -7.7741 C   0  0  0  0  0  0  0  0  0  0  0  0
  -28.4888   -8.9216   -8.8396 N   0  0  0  0  0  0  0  0  0  0  0  0
  -28.0877  -10.1746   -8.6105 C   0  0  0  0  0  0  0  0  0  0  0  0
  -27.8197  -10.7061   -7.4162 N   0  0  0  0  0  0  0  0  0  0  0  0
  -27.9763   -9.9071   -6.3455 C   0  0  0  0  0  0  0  0  0  0  0  0
  -28.4048   -8.5684   -6.4685 C   0  0  0  0  0  0  0  0  0  0  0  0
  -28.5822   -7.6498   -5.3988 C   0  0  0  0  0  0  0  0  0  0  0  0
  -28.9752   -6.3227   -5.6251 C   0  0  0  0  0  0  0  0  0  0  0  0
  -27.6670  -10.4218   -5.0656 N   0  0  0  0  0  0  0  0  0  0  0  0
  -28.3333  -11.1289   -4.7807 H   0  0  0  0  0  0  0  0  0  0  0  0
  -26.4253  -10.4794   -4.4013 C   0  0  0  0  0  0  0  0  0  0  0  0
  -25.2803  -10.0163   -5.0654 C   0  0  0  0  0  0  0  0  0  0  0  0
  -24.0000  -10.2529   -4.5516 C   0  0  0  0  0  0  0  0  0  0  0  0
  -23.8420  -10.9639   -3.3605 C   0  0  0  0  0  0  0  0  0  0  0  0
  -22.0720  -11.3587   -2.7989 Br  0  0  0  0  0  0  0  0  0  0  0  0
  -24.9706  -11.3936   -2.6611 C   0  0  0  0  0  0  0  0  0  0  0  0
  -24.8702  -12.2641   -1.1703 Cl  0  0  0  0  0  0  0  0  0  0  0  0
  -26.2468  -11.1544   -3.1855 C   0  0  0  0  0  0  0  0  0  0  0  0
  -29.1034   -5.5965   -4.4695 O   0  0  0  0  0  0  0  0  0  0  0  0
  -30.4146   -5.4153   -3.9458 C   0  0  0  0  0  0  0  0  0  0  0  0
  -29.3730   -4.5418   -7.1554 O   0  0  0  0  0  0  0  0  0  0  0  0
  -27.6194   -0.2355   -5.9454 C   0  0  0  0  0  0  0  0  0  0  0  0
  -27.1534   -1.1567   -4.8203 C   0  0  0  0  0  0  0  0  0  0  0  0
  -27.8489   -2.4057   -4.9040 O   0  0  0  0  0  0  0  0  0  0  0  0
  -28.6806   -2.4060   -6.0749 C   0  0  0  0  0  0  0  0  0  0  0  0
  -28.3072   -3.6087   -6.9452 C   0  0  0  0  0  0  0  0  0  0  0  0
  -27.9444   -2.9559   -8.2738 C   0  0  0  0  0  0  0  0  0  0  0  0
  -27.4655   -1.6436   -7.9491 O   0  0  0  0  0  0  0  0  0  0  0  0
  -28.3319   -1.1780   -6.8974 C   0  0  0  0  0  0  0  0  0  0  0  0
  -28.5402    0.7647   -5.4741 O   0  0  0  0  0  0  0  0  0  0  0  0
  -30.7612    1.4567   -6.0911 C   0  0  0  0  0  0  0  0  0  0  0  0
  -29.3151    1.3402   -6.5309 C   0  0  0  0  0  0  0  0  0  0  0  0
 33 34  1  0  0  0
 34 32  1  0  0  0
 24 25  1  0  0  0
 24 31  1  0  0  0
 24 32  1  0  0  0
 25 26  1  0  0  0
 26 27  1  0  0  0
 27 28  1  0  0  0
 27 31  1  0  0  0
 28 23  1  0  0  0
 28 29  1  0  0  0
 23  1  1  0  0  0
  1  2  1  0  0  0
  1 10  2  0  0  0
  2  3  2  0  0  0
  3  4  1  0  0  0
  3  8  1  0  0  0
  4  5  2  0  0  0
  5  6  1  0  0  0
  6  7  2  0  0  0
  7 11  1  0  0  0
  7  8  1  0  0  0
 11 13  1  0  0  0
 11 12  1  0  0  0
 13 14  1  0  0  0
 13 20  2  0  0  0
 14 15  2  0  0  0
 15 16  1  0  0  0
 16 17  1  0  0  0
 16 18  2  0  0  0
 18 19  1  0  0  0
 18 20  1  0  0  0
  8  9  2  0  0  0
  9 10  1  0  0  0
 10 21  1  0  0  0
 21 22  1  0  0  0
 29 30  1  0  0  0
 30 31  1  0  0  0
M  END
> <minimizedAffinity>
-8.53290

$$$$
