CHEMBL3965901


 30 33  0  0  0  0  0  0  0  0999 V2000
  -18.3717    1.1930  -14.9742 C   0  0  0  0  0  0  0  0  0  0  0  0
  -19.6162    0.6696  -14.6057 C   0  0  0  0  0  0  0  0  0  0  0  0
  -20.7073    1.5221  -14.3182 C   0  0  0  0  0  0  0  0  0  0  0  0
  -22.0013    1.1038  -13.9831 C   0  0  0  0  0  0  0  0  0  0  0  0
  -23.0131    1.9771  -13.8074 N   0  0  0  0  0  0  0  0  0  0  0  0
  -22.7284    3.2726  -13.9423 C   0  0  0  0  0  0  0  0  0  0  0  0
  -21.5283    3.7798  -14.2239 N   0  0  0  0  0  0  0  0  0  0  0  0
  -20.5407    2.9034  -14.4084 C   0  0  0  0  0  0  0  0  0  0  0  0
  -19.2850    3.4013  -14.6907 C   0  0  0  0  0  0  0  0  0  0  0  0
  -18.1691    2.5778  -14.9036 C   0  0  0  0  0  0  0  0  0  0  0  0
  -16.4680   -0.0591  -14.3301 C   0  0  0  0  0  0  0  0  0  0  0  0
  -17.3371    0.3897  -15.3779 O   0  0  0  0  0  0  0  0  0  0  0  0
  -22.2691   -0.2840  -13.8260 N   0  0  0  0  0  0  0  0  0  0  0  0
  -21.5726   -0.6868  -13.2076 H   0  0  0  0  0  0  0  0  0  0  0  0
  -23.5661   -0.7961  -13.6087 C   0  0  0  0  0  0  0  0  0  0  0  0
  -24.3938   -1.0937  -14.7016 C   0  0  0  0  0  0  0  0  0  0  0  0
  -25.7097   -1.5087  -14.5126 C   0  0  0  0  0  0  0  0  0  0  0  0
  -26.2176   -1.6356  -13.2215 C   0  0  0  0  0  0  0  0  0  0  0  0
  -27.8758   -2.0889  -13.0530 Cl  0  0  0  0  0  0  0  0  0  0  0  0
  -25.3892   -1.3843  -12.1215 C   0  0  0  0  0  0  0  0  0  0  0  0
  -25.9466   -1.5346  -10.4922 Cl  0  0  0  0  0  0  0  0  0  0  0  0
  -24.0623   -0.9762  -12.3177 C   0  0  0  0  0  0  0  0  0  0  0  0
  -16.8889    3.0797  -15.0429 O   0  0  0  0  0  0  0  0  0  0  0  0
  -16.7688    4.0314  -16.1153 C   0  0  0  0  0  0  0  0  0  0  0  0
  -15.6172    3.8267  -17.0597 C   0  0  0  0  0  0  0  0  0  0  0  0
  -15.2635    4.7221  -18.0661 C   0  0  0  0  0  0  0  0  0  0  0  0
  -14.2552    4.3722  -18.9629 C   0  0  0  0  0  0  0  0  0  0  0  0
  -13.6384    3.1369  -18.8277 C   0  0  0  0  0  0  0  0  0  0  0  0
  -13.9536    2.2452  -17.8680 N   0  0  0  0  0  0  0  0  0  0  0  0
  -14.9351    2.6089  -17.0140 C   0  0  0  0  0  0  0  0  0  0  0  0
 11 12  1  0  0  0
 12  1  1  0  0  0
  1  2  1  0  0  0
  1 10  2  0  0  0
  2  3  2  0  0  0
  3  4  1  0  0  0
  3  8  1  0  0  0
  4 13  1  0  0  0
  4  5  2  0  0  0
 13 15  1  0  0  0
 13 14  1  0  0  0
 15 16  1  0  0  0
 15 22  2  0  0  0
 16 17  2  0  0  0
 17 18  1  0  0  0
 18 19  1  0  0  0
 18 20  2  0  0  0
 20 21  1  0  0  0
 20 22  1  0  0  0
  5  6  1  0  0  0
  6  7  2  0  0  0
  7  8  1  0  0  0
  8  9  2  0  0  0
  9 10  1  0  0  0
 10 23  1  0  0  0
 23 24  1  0  0  0
 24 25  1  0  0  0
 25 26  1  0  0  0
 25 30  2  0  0  0
 26 27  2  0  0  0
 27 28  1  0  0  0
 28 29  2  0  0  0
 29 30  1  0  0  0
M  END
> <minimizedAffinity>
-8.74335

$$$$
