CHEMBL4102074


 30 33  0  0  0  0  0  0  0  0999 V2000
  -29.4090   -5.1771   -6.6894 C   0  0  0  0  0  0  0  0  0  0  0  0
  -28.3253   -5.5525   -5.9453 N   0  0  0  0  0  0  0  0  0  0  0  0
  -28.5295   -6.5551   -5.0697 C   0  0  0  0  0  0  0  0  0  0  0  0
  -27.4393   -7.1657   -4.4786 N   0  0  0  0  0  0  0  0  0  0  0  0
  -29.7299   -7.0825   -4.7658 N   0  0  0  0  0  0  0  0  0  0  0  0
  -30.6327   -6.8282   -5.7411 C   0  0  0  0  0  0  0  0  0  0  0  0
  -31.6951   -7.6405   -6.0783 N   0  0  0  0  0  0  0  0  0  0  0  0
  -31.0731   -8.4813   -6.9980 C   0  0  0  0  0  0  0  0  0  0  0  0
  -31.1777   -9.8628   -7.1433 C   0  0  0  0  0  0  0  0  0  0  0  0
  -30.2993  -10.4736   -8.0196 C   0  0  0  0  0  0  0  0  0  0  0  0
  -29.4033   -9.7077   -8.7565 C   0  0  0  0  0  0  0  0  0  0  0  0
  -28.5641  -10.3400   -9.6164 O   0  0  0  0  0  0  0  0  0  0  0  0
  -29.3199   -8.3014   -8.6134 C   0  0  0  0  0  0  0  0  0  0  0  0
  -30.1558   -7.6383   -7.6674 C   0  0  0  0  0  0  0  0  0  0  0  0
  -30.2653   -6.2872   -6.9847 C   0  0  0  0  0  0  0  0  0  0  0  0
  -26.7914   -6.4857   -4.1166 H   0  0  0  0  0  0  0  0  0  0  0  0
  -27.7748   -7.8735   -3.8385 H   0  0  0  0  0  0  0  0  0  0  0  0
  -32.5632   -7.2188   -6.3660 H   0  0  0  0  0  0  0  0  0  0  0  0
  -28.7050  -11.3074   -9.5873 H   0  0  0  0  0  0  0  0  0  0  0  0
  -29.9110   -3.9091   -6.2882 N   0  0  0  0  0  0  0  0  0  0  0  0
  -30.9017   -4.0470   -6.0968 H   0  0  0  0  0  0  0  0  0  0  0  0
  -29.2551   -3.1034   -5.2525 C   0  0  0  0  0  0  0  0  0  0  0  0
  -28.1822   -1.2619   -6.7134 C   0  0  0  0  0  0  0  0  0  0  0  0
  -28.0310    0.0893   -7.0976 C   0  0  0  0  0  0  0  0  0  0  0  0
  -28.7735    1.0898   -6.4785 C   0  0  0  0  0  0  0  0  0  0  0  0
  -29.6707    0.7560   -5.4784 C   0  0  0  0  0  0  0  0  0  0  0  0
  -29.8104   -0.5825   -5.0602 C   0  0  0  0  0  0  0  0  0  0  0  0
  -29.0553   -1.6190   -5.6517 C   0  0  0  0  0  0  0  0  0  0  0  0
  -27.7179   -2.4080   -8.7506 C   0  0  0  0  0  0  0  0  0  0  0  0
  -27.5160   -2.2867   -7.3423 O   0  0  0  0  0  0  0  0  0  0  0  0
 29 30  1  0  0  0
 30 23  1  0  0  0
 23 24  1  0  0  0
 23 28  2  0  0  0
 24 25  2  0  0  0
 25 26  1  0  0  0
 26 27  2  0  0  0
 27 28  1  0  0  0
 28 22  1  0  0  0
 22 20  1  0  0  0
 20  1  1  0  0  0
 20 21  1  0  0  0
  1  2  1  0  0  0
  1 15  2  0  0  0
  2  3  2  0  0  0
  3  4  1  0  0  0
  3  5  1  0  0  0
  4 16  1  0  0  0
  4 17  1  0  0  0
  5  6  2  0  0  0
  6  7  1  0  0  0
  6 15  1  0  0  0
  7  8  1  0  0  0
  7 18  1  0  0  0
  8  9  1  0  0  0
  8 14  2  0  0  0
  9 10  2  0  0  0
 10 11  1  0  0  0
 11 12  1  0  0  0
 11 13  2  0  0  0
 12 19  1  0  0  0
 13 14  1  0  0  0
 14 15  1  0  0  0
M  END
> <minimizedAffinity>
-8.84242

$$$$
