CHEMBL3937598


 37 40  0  0  0  0  0  0  0  0999 V2000
  -28.7057   -5.2673   -5.6992 C   0  0  0  0  0  0  0  0  0  0  0  0
  -28.3824   -3.9506   -5.3208 C   0  0  0  0  0  0  0  0  0  0  0  0
  -28.1325   -2.9257   -6.2318 C   0  0  0  0  0  0  0  0  0  0  0  0
  -27.8148   -1.7075   -5.7884 N   0  0  0  0  0  0  0  0  0  0  0  0
  -27.5941   -0.7657   -6.7100 C   0  0  0  0  0  0  0  0  0  0  0  0
  -27.7151   -0.9268   -8.0353 N   0  0  0  0  0  0  0  0  0  0  0  0
  -28.0552   -2.1468   -8.4685 C   0  0  0  0  0  0  0  0  0  0  0  0
  -28.2357   -3.2157   -7.5923 C   0  0  0  0  0  0  0  0  0  0  0  0
  -28.4990   -4.5351   -7.9912 C   0  0  0  0  0  0  0  0  0  0  0  0
  -28.7318   -5.5654   -7.0695 C   0  0  0  0  0  0  0  0  0  0  0  0
  -28.2943   -2.3459   -9.8619 N   0  0  0  0  0  0  0  0  0  0  0  0
  -29.2443   -2.0453  -10.0644 H   0  0  0  0  0  0  0  0  0  0  0  0
  -27.3859   -2.0009  -10.8793 C   0  0  0  0  0  0  0  0  0  0  0  0
  -27.8456   -1.7493  -12.1763 C   0  0  0  0  0  0  0  0  0  0  0  0
  -26.9512   -1.4996  -13.2141 C   0  0  0  0  0  0  0  0  0  0  0  0
  -25.5799   -1.4891  -12.9602 C   0  0  0  0  0  0  0  0  0  0  0  0
  -24.5189   -1.2542  -14.3018 Cl  0  0  0  0  0  0  0  0  0  0  0  0
  -25.1115   -1.6883  -11.6562 C   0  0  0  0  0  0  0  0  0  0  0  0
  -23.4268   -1.6747  -11.2661 Cl  0  0  0  0  0  0  0  0  0  0  0  0
  -26.0151   -1.9313  -10.6158 C   0  0  0  0  0  0  0  0  0  0  0  0
  -28.9066   -6.7330   -7.7480 O   0  0  0  0  0  0  0  0  0  0  0  0
  -30.1660   -7.3558   -7.8612 C   0  0  0  0  0  0  0  0  0  0  0  0
  -29.0100   -6.2395   -4.7706 O   0  0  0  0  0  0  0  0  0  0  0  0
  -28.1144   -7.3784   -4.6410 C   0  0  0  0  0  0  0  0  0  0  0  0
  -27.0618  -10.5756   -4.4419 N   0  0  0  0  0  0  0  0  0  0  0  0
  -27.9911  -11.2247   -5.3872 C   0  0  0  0  0  0  0  0  0  0  0  0
  -28.9822  -10.2738   -6.0891 C   0  0  0  0  0  0  0  0  0  0  0  0
  -29.6158   -9.2821   -5.2728 O   0  0  0  0  0  0  0  0  0  0  0  0
  -28.8267   -8.6955   -4.2202 C   0  0  0  0  0  0  0  0  0  0  0  0
  -27.9229   -9.7631   -3.5497 C   0  0  0  0  0  0  0  0  0  0  0  0
  -25.9202   -9.8597   -5.0878 C   0  0  0  0  0  0  0  0  0  0  0  0
  -25.3426  -10.6499   -6.2782 C   0  0  0  0  0  0  0  0  0  0  0  0
  -24.8118   -9.4644   -4.0637 C   0  0  0  0  0  0  0  0  0  0  0  0
  -24.8318   -8.4423   -3.3850 O   0  0  0  0  0  0  0  0  0  0  0  0
  -23.7164  -10.2722   -4.1377 O   0  0  0  0  0  0  0  0  0  0  0  0
  -21.9393  -11.3710   -2.9802 C   0  0  0  0  0  0  0  0  0  0  0  0
  -23.4138  -11.0106   -2.9419 C   0  0  0  0  0  0  0  0  0  0  0  0
 36 37  1  0  0  0
 37 35  1  0  0  0
 35 33  1  0  0  0
 33 34  2  0  0  0
 33 31  1  0  0  0
 31 32  1  0  0  0
 31 25  1  0  0  0
 25 26  1  0  0  0
 25 30  1  0  0  0
 26 27  1  0  0  0
 27 28  1  0  0  0
 28 29  1  0  0  0
 29 24  1  0  0  0
 29 30  1  0  0  0
 24 23  1  0  0  0
 23  1  1  0  0  0
  1  2  1  0  0  0
  1 10  2  0  0  0
  2  3  2  0  0  0
  3  4  1  0  0  0
  3  8  1  0  0  0
  4  5  2  0  0  0
  5  6  1  0  0  0
  6  7  2  0  0  0
  7 11  1  0  0  0
  7  8  1  0  0  0
 11 13  1  0  0  0
 11 12  1  0  0  0
 13 14  1  0  0  0
 13 20  2  0  0  0
 14 15  2  0  0  0
 15 16  1  0  0  0
 16 17  1  0  0  0
 16 18  2  0  0  0
 18 19  1  0  0  0
 18 20  1  0  0  0
  8  9  2  0  0  0
  9 10  1  0  0  0
 10 21  1  0  0  0
 21 22  1  0  0  0
M  END
> <minimizedAffinity>
-8.41922

$$$$
