CHEMBL4468893


 44 47  0  0  0  0  0  0  0  0999 V2000
  -28.7528   11.4071  -14.9346 C   0  0  0  0  0  0  0  0  0  0  0  0
  -30.0255   11.6549  -14.3964 C   0  0  0  0  0  0  0  0  0  0  0  0
  -30.2009   11.9791  -13.0292 C   0  0  0  0  0  0  0  0  0  0  0  0
  -31.4288   12.2871  -12.4082 C   0  0  0  0  0  0  0  0  0  0  0  0
  -31.4999   12.6252  -11.1059 N   0  0  0  0  0  0  0  0  0  0  0  0
  -30.3589   12.6511  -10.4187 C   0  0  0  0  0  0  0  0  0  0  0  0
  -29.1468   12.3795  -10.9069 N   0  0  0  0  0  0  0  0  0  0  0  0
  -29.0752   12.0592  -12.2018 C   0  0  0  0  0  0  0  0  0  0  0  0
  -27.8187   11.8285  -12.7507 C   0  0  0  0  0  0  0  0  0  0  0  0
  -27.6183   11.5278  -14.1072 C   0  0  0  0  0  0  0  0  0  0  0  0
  -32.6405   12.2589  -13.1551 N   0  0  0  0  0  0  0  0  0  0  0  0
  -32.4796   12.6804  -14.0641 H   0  0  0  0  0  0  0  0  0  0  0  0
  -33.4830   11.1208  -13.2200 C   0  0  0  0  0  0  0  0  0  0  0  0
  -33.9419   10.5100  -12.0387 C   0  0  0  0  0  0  0  0  0  0  0  0
  -34.6863    9.3249  -12.0779 C   0  0  0  0  0  0  0  0  0  0  0  0
  -34.9787    8.7540  -13.3055 C   0  0  0  0  0  0  0  0  0  0  0  0
  -35.6593    7.5997  -13.3448 F   0  0  0  0  0  0  0  0  0  0  0  0
  -34.5722    9.3692  -14.4829 C   0  0  0  0  0  0  0  0  0  0  0  0
  -34.8660    8.8163  -15.6670 F   0  0  0  0  0  0  0  0  0  0  0  0
  -33.8351   10.5517  -14.4492 C   0  0  0  0  0  0  0  0  0  0  0  0
  -28.4601    9.9500  -16.7849 C   0  0  0  0  0  0  0  0  0  0  0  0
  -28.7533   11.2638  -16.3001 O   0  0  0  0  0  0  0  0  0  0  0  0
  -26.2697   11.4572  -14.4267 O   0  0  0  0  0  0  0  0  0  0  0  0
  -25.7474   12.6543  -14.9610 C   0  0  0  0  0  0  0  0  0  0  0  0
  -25.0002   12.6108  -16.2828 C   0  0  0  0  0  0  0  0  0  0  0  0
  -24.1272   11.4601  -16.3216 O   0  0  0  0  0  0  0  0  0  0  0  0
  -24.2035   10.6442  -17.5024 C   0  0  0  0  0  0  0  0  0  0  0  0
  -23.0616   10.9252  -18.4701 C   0  0  0  0  0  0  0  0  0  0  0  0
  -22.0622   11.7445  -17.8643 O   0  0  0  0  0  0  0  0  0  0  0  0
  -20.7774   11.4353  -18.4251 C   0  0  0  0  0  0  0  0  0  0  0  0
  -20.8611   11.4731  -19.9493 C   0  0  0  0  0  0  0  0  0  0  0  0
  -19.9589   10.5219  -20.5777 N   0  0  0  0  0  0  0  0  0  0  0  0
  -19.0069   10.9334  -21.4834 C   0  0  0  0  0  0  0  0  0  0  0  0
  -18.9086   12.0955  -21.8731 O   0  0  0  0  0  0  0  0  0  0  0  0
  -19.8185    9.6496  -20.0779 H   0  0  0  0  0  0  0  0  0  0  0  0
  -18.0646    9.8553  -21.9537 C   0  0  0  0  0  0  0  0  0  0  0  0
  -16.9203    9.7537  -21.0784 N   0  0  0  0  0  0  0  0  0  0  0  0
  -16.3014   10.7601  -20.3897 C   0  0  0  0  0  0  0  0  0  0  0  0
  -15.2700   10.2742  -19.7355 N   0  0  0  0  0  0  0  0  0  0  0  0
  -15.3032    8.9464  -20.0745 C   0  0  0  0  0  0  0  0  0  0  0  0
  -16.2992    8.5716  -20.8929 N   0  0  0  0  0  0  0  0  0  0  0  0
  -14.3266    7.9781  -19.5832 N   0  0  0  0  0  0  0  0  0  0  0  0
  -14.0597    8.0020  -18.3730 O   0  0  0  0  0  0  0  0  0  0  0  0
  -13.8250    7.1905  -20.4022 O   0  0  0  0  0  0  0  0  0  0  0  0
 21 22  1  0  0  0
 22  1  1  0  0  0
  1  2  1  0  0  0
  1 10  2  0  0  0
  2  3  2  0  0  0
  3  4  1  0  0  0
  3  8  1  0  0  0
  4 11  1  0  0  0
  4  5  2  0  0  0
 11 13  1  0  0  0
 11 12  1  0  0  0
 13 14  1  0  0  0
 13 20  2  0  0  0
 14 15  2  0  0  0
 15 16  1  0  0  0
 16 17  1  0  0  0
 16 18  2  0  0  0
 18 19  1  0  0  0
 18 20  1  0  0  0
  5  6  1  0  0  0
  6  7  2  0  0  0
  7  8  1  0  0  0
  8  9  2  0  0  0
  9 10  1  0  0  0
 10 23  1  0  0  0
 23 24  1  0  0  0
 24 25  1  0  0  0
 25 26  1  0  0  0
 26 27  1  0  0  0
 27 28  1  0  0  0
 28 29  1  0  0  0
 29 30  1  0  0  0
 30 31  1  0  0  0
 31 32  1  0  0  0
 32 33  1  0  0  0
 32 35  1  0  0  0
 33 34  2  0  0  0
 33 36  1  0  0  0
 36 37  1  0  0  0
 37 38  1  0  0  0
 37 41  1  0  0  0
 38 39  2  0  0  0
 39 40  1  0  0  0
 40 42  1  0  0  0
 40 41  2  0  0  0
 42 43  2  0  0  0
 42 44  1  0  0  0
M  CHG 1  42   1
M  CHG 1  44  -1
M  END
> <minimizedAffinity>
-4.82275

$$$$
