CHEMBL3596893


 34 37  0  0  0  0  0  0  0  0999 V2000
  -22.8819    0.4682  -13.2655 C   0  0  0  0  0  0  0  0  0  0  0  0
  -23.9450    0.9845  -12.5167 C   0  0  0  0  0  0  0  0  0  0  0  0
  -24.8892    0.1487  -11.9120 C   0  0  0  0  0  0  0  0  0  0  0  0
  -24.8147   -1.2419  -12.0374 C   0  0  0  0  0  0  0  0  0  0  0  0
  -23.7525   -1.7762  -12.7725 C   0  0  0  0  0  0  0  0  0  0  0  0
  -22.8013   -0.9320  -13.3771 C   0  0  0  0  0  0  0  0  0  0  0  0
  -19.7333    1.7944  -14.5600 C   0  0  0  0  0  0  0  0  0  0  0  0
  -20.1242    3.0409  -15.0381 C   0  0  0  0  0  0  0  0  0  0  0  0
  -21.4035    3.4866  -14.9895 N   0  0  0  0  0  0  0  0  0  0  0  0
  -22.2870    2.6320  -14.4226 C   0  0  0  0  0  0  0  0  0  0  0  0
  -21.9274    1.3857  -13.9150 C   0  0  0  0  0  0  0  0  0  0  0  0
  -20.6373    0.9494  -13.9974 N   0  0  0  0  0  0  0  0  0  0  0  0
  -15.1415    0.3785  -13.2688 C   0  0  0  0  0  0  0  0  0  0  0  0
  -16.3246    0.7266  -14.0196 N   0  0  0  0  0  0  0  0  0  0  0  0
  -17.5553    1.0552  -13.5251 C   0  0  0  0  0  0  0  0  0  0  0  0
  -18.3485    1.3621  -14.6184 C   0  0  0  0  0  0  0  0  0  0  0  0
  -17.4855    1.1654  -15.7198 C   0  0  0  0  0  0  0  0  0  0  0  0
  -16.2578    0.7809  -15.3592 N   0  0  0  0  0  0  0  0  0  0  0  0
  -25.7513   -2.1260  -11.4429 N   0  0  0  0  0  0  0  0  0  0  0  0
  -26.3262   -1.9204  -10.2158 C   0  0  0  0  0  0  0  0  0  0  0  0
  -26.2312   -0.9562   -9.4834 O   0  0  0  0  0  0  0  0  0  0  0  0
  -27.0793   -3.0515   -9.7757 N   0  0  0  0  0  0  0  0  0  0  0  0
  -26.0236   -2.9273  -11.9882 H   0  0  0  0  0  0  0  0  0  0  0  0
  -26.9795   -3.9451  -10.2315 H   0  0  0  0  0  0  0  0  0  0  0  0
  -27.6287   -3.0207   -8.4953 C   0  0  0  0  0  0  0  0  0  0  0  0
  -27.6518   -1.9032   -7.6932 C   0  0  0  0  0  0  0  0  0  0  0  0
  -28.4638   -2.2560   -6.5787 C   0  0  0  0  0  0  0  0  0  0  0  0
  -28.8150   -3.5479   -6.6362 N   0  0  0  0  0  0  0  0  0  0  0  0
  -28.3097   -3.9926   -7.8006 N   0  0  0  0  0  0  0  0  0  0  0  0
  -28.4070   -5.4024   -8.0988 C   0  0  0  0  0  0  0  0  0  0  0  0
  -28.9560   -1.3968   -5.4211 C   0  0  0  0  0  0  0  0  0  0  0  0
  -29.7695   -0.1841   -5.9153 C   0  0  0  0  0  0  0  0  0  0  0  0
  -29.8674   -2.2242   -4.4868 C   0  0  0  0  0  0  0  0  0  0  0  0
  -27.7583   -0.8735   -4.6039 C   0  0  0  0  0  0  0  0  0  0  0  0
 13 14  1  0  0  0
 14 15  1  0  0  0
 14 18  1  0  0  0
 15 16  2  0  0  0
 16  7  1  0  0  0
 16 17  1  0  0  0
  7  8  1  0  0  0
  7 12  2  0  0  0
  8  9  2  0  0  0
  9 10  1  0  0  0
 10 11  2  0  0  0
 11  1  1  0  0  0
 11 12  1  0  0  0
  1  2  1  0  0  0
  1  6  2  0  0  0
  2  3  2  0  0  0
  3  4  1  0  0  0
  4 19  1  0  0  0
  4  5  2  0  0  0
 19 20  1  0  0  0
 19 23  1  0  0  0
 20 21  2  0  0  0
 20 22  1  0  0  0
 22 25  1  0  0  0
 22 24  1  0  0  0
 25 26  2  0  0  0
 25 29  1  0  0  0
 26 27  1  0  0  0
 27 31  1  0  0  0
 27 28  2  0  0  0
 31 32  1  0  0  0
 31 33  1  0  0  0
 31 34  1  0  0  0
 28 29  1  0  0  0
 29 30  1  0  0  0
  5  6  1  0  0  0
 17 18  2  0  0  0
M  END
> <minimizedAffinity>
-10.62331

$$$$
