CHEMBL3753534


 34 38  0  0  0  0  0  0  0  0999 V2000
  -29.3308  -10.1597   -7.3277 N   0  0  0  0  0  0  0  0  0  0  0  0
  -30.3413   -9.4754   -6.4684 C   0  0  0  0  0  0  0  0  0  0  0  0
  -30.8197   -8.0943   -6.9817 C   0  0  0  0  0  0  0  0  0  0  0  0
  -29.6302   -7.2540   -7.1045 N   0  0  0  0  0  0  0  0  0  0  0  0
  -28.6817   -7.7581   -8.1009 C   0  0  0  0  0  0  0  0  0  0  0  0
  -28.2370   -9.1827   -7.6483 C   0  0  0  0  0  0  0  0  0  0  0  0
  -29.5510   -5.9494   -6.6577 C   0  0  0  0  0  0  0  0  0  0  0  0
  -28.7952   -5.0844   -7.3632 N   0  0  0  0  0  0  0  0  0  0  0  0
  -28.6524   -3.7628   -6.9881 N   0  0  0  0  0  0  0  0  0  0  0  0
  -29.3267   -3.2679   -5.9282 C   0  0  0  0  0  0  0  0  0  0  0  0
  -30.1911   -4.1033   -5.1801 C   0  0  0  0  0  0  0  0  0  0  0  0
  -31.0440   -3.6501   -4.1303 C   0  0  0  0  0  0  0  0  0  0  0  0
  -31.7473   -4.5213   -3.3004 C   0  0  0  0  0  0  0  0  0  0  0  0
  -31.6138   -5.8791   -3.4850 C   0  0  0  0  0  0  0  0  0  0  0  0
  -30.8484   -6.3442   -4.5505 C   0  0  0  0  0  0  0  0  0  0  0  0
  -30.2017   -5.4857   -5.4852 C   0  0  0  0  0  0  0  0  0  0  0  0
  -29.0032   -1.8501   -5.6091 C   0  0  0  0  0  0  0  0  0  0  0  0
  -27.7296   -1.4856   -5.1327 C   0  0  0  0  0  0  0  0  0  0  0  0
  -27.3971   -0.1501   -4.8685 C   0  0  0  0  0  0  0  0  0  0  0  0
  -28.3280    0.8602   -5.0880 C   0  0  0  0  0  0  0  0  0  0  0  0
  -29.6091    0.5299   -5.5093 C   0  0  0  0  0  0  0  0  0  0  0  0
  -29.9491   -0.8097   -5.7227 C   0  0  0  0  0  0  0  0  0  0  0  0
  -29.9274  -10.6594   -8.5909 C   0  0  0  0  0  0  0  0  0  0  0  0
  -27.9965  -11.5527   -9.6897 O   0  0  0  0  0  0  0  0  0  0  0  0
  -28.9116  -10.7354   -9.7421 C   0  0  0  0  0  0  0  0  0  0  0  0
  -29.1562   -9.8369  -10.7665 N   0  0  0  0  0  0  0  0  0  0  0  0
  -29.8620   -9.1389  -10.5508 H   0  0  0  0  0  0  0  0  0  0  0  0
  -28.3969   -9.6862  -11.9440 C   0  0  0  0  0  0  0  0  0  0  0  0
  -27.1541   -9.0441  -11.9703 C   0  0  0  0  0  0  0  0  0  0  0  0
  -26.4448   -8.9097  -13.1694 C   0  0  0  0  0  0  0  0  0  0  0  0
  -26.9816   -9.4090  -14.3485 C   0  0  0  0  0  0  0  0  0  0  0  0
  -26.1230   -9.2167  -15.8282 Cl  0  0  0  0  0  0  0  0  0  0  0  0
  -28.2119  -10.0633  -14.3386 C   0  0  0  0  0  0  0  0  0  0  0  0
  -28.9124  -10.2138  -13.1359 C   0  0  0  0  0  0  0  0  0  0  0  0
 24 25  2  0  0  0
 25 23  1  0  0  0
 25 26  1  0  0  0
 23  1  1  0  0  0
  1  2  1  0  0  0
  1  6  1  0  0  0
  2  3  1  0  0  0
  3  4  1  0  0  0
  4  7  1  0  0  0
  4  5  1  0  0  0
  7  8  1  0  0  0
  7 16  2  0  0  0
  8  9  2  0  0  0
  9 10  1  0  0  0
 10 17  1  0  0  0
 10 11  2  0  0  0
 17 18  1  0  0  0
 17 22  2  0  0  0
 18 19  2  0  0  0
 19 20  1  0  0  0
 20 21  2  0  0  0
 21 22  1  0  0  0
 11 12  1  0  0  0
 11 16  1  0  0  0
 12 13  2  0  0  0
 13 14  1  0  0  0
 14 15  2  0  0  0
 15 16  1  0  0  0
  5  6  1  0  0  0
 26 28  1  0  0  0
 26 27  1  0  0  0
 28 29  1  0  0  0
 28 34  2  0  0  0
 29 30  2  0  0  0
 30 31  1  0  0  0
 31 32  1  0  0  0
 31 33  2  0  0  0
 33 34  1  0  0  0
M  END
> <minimizedAffinity>
-9.40504

$$$$
