CHEMBL2018773


 30 32  0  0  0  0  0  0  0  0999 V2000
  -27.8941   -1.5728   -7.1664 C   0  0  0  0  0  0  0  0  0  0  0  0
  -28.1386   -2.9411   -6.9587 C   0  0  0  0  0  0  0  0  0  0  0  0
  -28.8092   -3.4112   -5.7960 C   0  0  0  0  0  0  0  0  0  0  0  0
  -29.0334   -4.7527   -5.4378 C   0  0  0  0  0  0  0  0  0  0  0  0
  -29.7017   -5.0860   -4.3171 N   0  0  0  0  0  0  0  0  0  0  0  0
  -30.1260   -4.1037   -3.5334 C   0  0  0  0  0  0  0  0  0  0  0  0
  -29.9330   -2.8033   -3.7529 N   0  0  0  0  0  0  0  0  0  0  0  0
  -29.2749   -2.4762   -4.8688 C   0  0  0  0  0  0  0  0  0  0  0  0
  -29.0398   -1.1312   -5.0933 C   0  0  0  0  0  0  0  0  0  0  0  0
  -28.3528   -0.6498   -6.2182 C   0  0  0  0  0  0  0  0  0  0  0  0
  -28.5017   -5.8100   -6.2215 N   0  0  0  0  0  0  0  0  0  0  0  0
  -28.0403   -5.4444   -7.0511 H   0  0  0  0  0  0  0  0  0  0  0  0
  -29.2271   -6.9975   -6.4983 C   0  0  0  0  0  0  0  0  0  0  0  0
  -30.4257   -6.9534   -7.2289 C   0  0  0  0  0  0  0  0  0  0  0  0
  -31.0906   -8.1259   -7.5920 C   0  0  0  0  0  0  0  0  0  0  0  0
  -30.5713   -9.3581   -7.2032 C   0  0  0  0  0  0  0  0  0  0  0  0
  -31.4381  -10.9452   -7.7521 Br  0  0  0  0  0  0  0  0  0  0  0  0
  -29.4124   -9.4267   -6.4326 C   0  0  0  0  0  0  0  0  0  0  0  0
  -28.7577   -8.2477   -6.0811 C   0  0  0  0  0  0  0  0  0  0  0  0
  -27.6270   -8.3219   -5.3621 F   0  0  0  0  0  0  0  0  0  0  0  0
  -28.1797    0.6890   -6.4462 O   0  0  0  0  0  0  0  0  0  0  0  0
  -29.3606    1.4639   -6.6535 C   0  0  0  0  0  0  0  0  0  0  0  0
  -27.2274   -1.3130   -8.3362 O   0  0  0  0  0  0  0  0  0  0  0  0
  -27.3374   -2.2716   -9.4000 C   0  0  0  0  0  0  0  0  0  0  0  0
  -27.2535   -1.5120  -10.7443 C   0  0  0  0  0  0  0  0  0  0  0  0
  -26.1877   -1.9424  -11.6793 N   0  0  0  0  0  0  0  0  0  0  0  0
  -27.9119   -2.2373  -13.5084 C   0  0  0  0  0  0  0  0  0  0  0  0
  -26.5801   -1.6294  -13.0689 C   0  0  0  0  0  0  0  0  0  0  0  0
  -24.8482   -1.4574  -11.3197 C   0  0  0  0  0  0  0  0  0  0  0  0
  -23.6733   -2.1210  -12.0308 C   0  0  0  0  0  0  0  0  0  0  0  0
 27 28  1  0  0  0
 28 26  1  0  0  0
 26 29  1  0  0  0
 26 25  1  0  0  0
 29 30  1  0  0  0
 25 24  1  0  0  0
 24 23  1  0  0  0
 23  1  1  0  0  0
  1  2  1  0  0  0
  1 10  2  0  0  0
  2  3  2  0  0  0
  3  4  1  0  0  0
  3  8  1  0  0  0
  4 11  1  0  0  0
  4  5  2  0  0  0
 11 13  1  0  0  0
 11 12  1  0  0  0
 13 14  1  0  0  0
 13 19  2  0  0  0
 14 15  2  0  0  0
 15 16  1  0  0  0
 16 17  1  0  0  0
 16 18  2  0  0  0
 18 19  1  0  0  0
 19 20  1  0  0  0
  5  6  1  0  0  0
  6  7  2  0  0  0
  7  8  1  0  0  0
  8  9  2  0  0  0
  9 10  1  0  0  0
 10 21  1  0  0  0
 21 22  1  0  0  0
M  END
> <minimizedAffinity>
-8.23398

$$$$
