CHEMBL516047


 21 23  0  0  0  0  0  0  0  0999 V2000
  -16.1858    1.7135  -15.6590 C   0  0  0  0  0  0  0  0  0  0  0  0
  -15.5277    1.7483  -16.8512 N   0  0  0  0  0  0  0  0  0  0  0  0
  -14.4767    0.9352  -17.0411 C   0  0  0  0  0  0  0  0  0  0  0  0
  -13.7299    0.9928  -18.3382 C   0  0  0  0  0  0  0  0  0  0  0  0
  -14.0307    0.0583  -16.1459 N   0  0  0  0  0  0  0  0  0  0  0  0
  -14.6677   -0.0022  -14.9854 C   0  0  0  0  0  0  0  0  0  0  0  0
  -14.1922   -0.9637  -14.1082 C   0  0  0  0  0  0  0  0  0  0  0  0
  -14.7509   -1.1517  -12.8492 C   0  0  0  0  0  0  0  0  0  0  0  0
  -15.8155   -0.3610  -12.4621 C   0  0  0  0  0  0  0  0  0  0  0  0
  -16.3303    0.5903  -13.3490 C   0  0  0  0  0  0  0  0  0  0  0  0
  -15.7625    0.8131  -14.6389 C   0  0  0  0  0  0  0  0  0  0  0  0
  -17.3432    2.5465  -15.5476 N   0  0  0  0  0  0  0  0  0  0  0  0
  -17.0621    3.9488  -15.8983 C   0  0  0  0  0  0  0  0  0  0  0  0
  -21.3489    1.7514  -14.2883 C   0  0  0  0  0  0  0  0  0  0  0  0
  -20.7945    3.0171  -14.1252 C   0  0  0  0  0  0  0  0  0  0  0  0
  -19.4829    3.2765  -14.5516 C   0  0  0  0  0  0  0  0  0  0  0  0
  -18.6677    2.2785  -15.1251 C   0  0  0  0  0  0  0  0  0  0  0  0
  -19.2320    0.9992  -15.2307 C   0  0  0  0  0  0  0  0  0  0  0  0
  -20.5553    0.7408  -14.8355 C   0  0  0  0  0  0  0  0  0  0  0  0
  -23.0153   -0.4223  -13.9429 C   0  0  0  0  0  0  0  0  0  0  0  0
  -23.0150    1.3842  -13.7701 S   0  0  0  0  0  0  0  0  0  0  0  0
 20 21  1  0  0  0
 21 14  1  0  0  0
 14 15  1  0  0  0
 14 19  2  0  0  0
 15 16  2  0  0  0
 16 17  1  0  0  0
 17 12  1  0  0  0
 17 18  2  0  0  0
 12 13  1  0  0  0
 12  1  1  0  0  0
  1  2  1  0  0  0
  1 11  2  0  0  0
  2  3  2  0  0  0
  3  4  1  0  0  0
  3  5  1  0  0  0
  5  6  2  0  0  0
  6  7  1  0  0  0
  6 11  1  0  0  0
  7  8  2  0  0  0
  8  9  1  0  0  0
  9 10  2  0  0  0
 10 11  1  0  0  0
 18 19  1  0  0  0
M  END
> <minimizedAffinity>
-7.14131

$$$$
