CHEMBL1981410


 37 40  0  0  0  0  0  0  0  0999 V2000
  -17.0587    2.4950  -15.8528 C   0  0  0  0  0  0  0  0  0  0  0  0
  -17.9908    3.5302  -15.9011 C   0  0  0  0  0  0  0  0  0  0  0  0
  -19.2218    3.4028  -15.2554 C   0  0  0  0  0  0  0  0  0  0  0  0
  -19.5496    2.2456  -14.5444 C   0  0  0  0  0  0  0  0  0  0  0  0
  -18.5975    1.2222  -14.4637 C   0  0  0  0  0  0  0  0  0  0  0  0
  -17.3564    1.3471  -15.1121 C   0  0  0  0  0  0  0  0  0  0  0  0
  -13.8631    4.9836  -18.3981 C   0  0  0  0  0  0  0  0  0  0  0  0
  -12.7032    5.1946  -19.0499 N   0  0  0  0  0  0  0  0  0  0  0  0
  -12.0776    4.1049  -19.5072 C   0  0  0  0  0  0  0  0  0  0  0  0
  -12.4926    2.8391  -19.3893 N   0  0  0  0  0  0  0  0  0  0  0  0
  -13.6439    2.6470  -18.7192 C   0  0  0  0  0  0  0  0  0  0  0  0
  -14.3814    3.6987  -18.1552 C   0  0  0  0  0  0  0  0  0  0  0  0
  -15.6203    3.5700  -17.4611 N   0  0  0  0  0  0  0  0  0  0  0  0
  -15.7647    2.6126  -16.5915 C   0  0  0  0  0  0  0  0  0  0  0  0
  -14.6678    1.6168  -16.2703 C   0  0  0  0  0  0  0  0  0  0  0  0
  -14.4576    0.6844  -17.4498 C   0  0  0  0  0  0  0  0  0  0  0  0
  -14.0427    1.3147  -18.6949 N   0  0  0  0  0  0  0  0  0  0  0  0
  -13.3090    0.7977  -19.1766 H   0  0  0  0  0  0  0  0  0  0  0  0
  -14.6893    7.1917  -18.8172 C   0  0  0  0  0  0  0  0  0  0  0  0
  -14.5728    6.0980  -17.8701 N   0  0  0  0  0  0  0  0  0  0  0  0
  -15.4778    5.7328  -17.5687 H   0  0  0  0  0  0  0  0  0  0  0  0
  -20.7886    2.0777  -13.8832 N   0  0  0  0  0  0  0  0  0  0  0  0
  -21.6445    0.9959  -14.0290 C   0  0  0  0  0  0  0  0  0  0  0  0
  -21.3964   -0.0236  -14.6628 O   0  0  0  0  0  0  0  0  0  0  0  0
  -22.8667    1.2216  -13.4085 N   0  0  0  0  0  0  0  0  0  0  0  0
  -21.0023    2.7227  -13.1362 H   0  0  0  0  0  0  0  0  0  0  0  0
  -23.1665    2.1856  -13.4256 H   0  0  0  0  0  0  0  0  0  0  0  0
  -23.8918    0.2483  -13.4594 C   0  0  0  0  0  0  0  0  0  0  0  0
  -24.1606   -0.3788  -14.6766 C   0  0  0  0  0  0  0  0  0  0  0  0
  -25.1151   -1.3950  -14.7429 C   0  0  0  0  0  0  0  0  0  0  0  0
  -25.8458   -1.7483  -13.6071 C   0  0  0  0  0  0  0  0  0  0  0  0
  -25.6235   -1.0971  -12.3855 C   0  0  0  0  0  0  0  0  0  0  0  0
  -24.6260   -0.1074  -12.3211 C   0  0  0  0  0  0  0  0  0  0  0  0
  -26.4348   -1.4329  -11.1607 C   0  0  0  0  0  0  0  0  0  0  0  0
  -26.6912   -2.7665  -11.0316 F   0  0  0  0  0  0  0  0  0  0  0  0
  -25.8319   -1.0582   -9.9997 F   0  0  0  0  0  0  0  0  0  0  0  0
  -27.6547   -0.8251  -11.1641 F   0  0  0  0  0  0  0  0  0  0  0  0
 19 20  1  0  0  0
 20  7  1  0  0  0
 20 21  1  0  0  0
  7  8  1  0  0  0
  7 12  2  0  0  0
  8  9  2  0  0  0
  9 10  1  0  0  0
 10 11  2  0  0  0
 11 12  1  0  0  0
 11 17  1  0  0  0
 12 13  1  0  0  0
 13 14  2  0  0  0
 14  1  1  0  0  0
 14 15  1  0  0  0
  1  2  1  0  0  0
  1  6  2  0  0  0
  2  3  2  0  0  0
  3  4  1  0  0  0
  4 22  1  0  0  0
  4  5  2  0  0  0
 22 23  1  0  0  0
 22 26  1  0  0  0
 23 24  2  0  0  0
 23 25  1  0  0  0
 25 28  1  0  0  0
 25 27  1  0  0  0
 28 29  1  0  0  0
 28 33  2  0  0  0
 29 30  2  0  0  0
 30 31  1  0  0  0
 31 32  2  0  0  0
 32 34  1  0  0  0
 32 33  1  0  0  0
 34 35  1  0  0  0
 34 36  1  0  0  0
 34 37  1  0  0  0
  5  6  1  0  0  0
 15 16  1  0  0  0
 16 17  1  0  0  0
 17 18  1  0  0  0
M  END
> <minimizedAffinity>
-9.68040

$$$$
