CHEMBL1242110


 24 26  0  0  0  0  0  0  0  0999 V2000
  -28.6314   -9.4056   -9.0824 N   0  0  0  0  0  0  0  0  0  0  0  0
  -28.2481   -8.1848   -8.6455 N   0  0  0  0  0  0  0  0  0  0  0  0
  -29.2680   -7.7572   -7.8834 C   0  0  0  0  0  0  0  0  0  0  0  0
  -30.3434   -8.7106   -7.8858 C   0  0  0  0  0  0  0  0  0  0  0  0
  -31.6267   -8.8709   -7.3355 C   0  0  0  0  0  0  0  0  0  0  0  0
  -32.2808   -7.9660   -6.5056 N   0  0  0  0  0  0  0  0  0  0  0  0
  -32.3171   -9.9993   -7.6005 N   0  0  0  0  0  0  0  0  0  0  0  0
  -31.7403  -10.9403   -8.3757 C   0  0  0  0  0  0  0  0  0  0  0  0
  -30.5329  -10.9049   -8.9476 N   0  0  0  0  0  0  0  0  0  0  0  0
  -29.8825   -9.7589   -8.6690 C   0  0  0  0  0  0  0  0  0  0  0  0
  -31.6757   -7.4978   -5.8439 H   0  0  0  0  0  0  0  0  0  0  0  0
  -33.0975   -8.4071   -6.0967 H   0  0  0  0  0  0  0  0  0  0  0  0
  -29.1635   -6.4982   -7.1356 C   0  0  0  0  0  0  0  0  0  0  0  0
  -29.7384   -5.3183   -7.6265 C   0  0  0  0  0  0  0  0  0  0  0  0
  -29.8174   -4.1682   -6.8336 C   0  0  0  0  0  0  0  0  0  0  0  0
  -29.2487   -4.1545   -5.5624 C   0  0  0  0  0  0  0  0  0  0  0  0
  -28.5870   -5.2897   -5.1024 C   0  0  0  0  0  0  0  0  0  0  0  0
  -27.9892   -5.2884   -3.8716 O   0  0  0  0  0  0  0  0  0  0  0  0
  -28.5481   -6.4555   -5.8750 C   0  0  0  0  0  0  0  0  0  0  0  0
  -27.9468   -7.5416   -5.3604 F   0  0  0  0  0  0  0  0  0  0  0  0
  -28.0688   -4.4060   -3.4757 H   0  0  0  0  0  0  0  0  0  0  0  0
  -27.1961   -9.4662  -11.0954 C   0  0  0  0  0  0  0  0  0  0  0  0
  -27.7243  -10.2240   -9.8784 C   0  0  0  0  0  0  0  0  0  0  0  0
  -26.5783  -10.7816   -9.0321 C   0  0  0  0  0  0  0  0  0  0  0  0
 22 23  1  0  0  0
 23 24  1  0  0  0
 23  1  1  0  0  0
  1  2  1  0  0  0
  1 10  1  0  0  0
  2  3  2  0  0  0
  3 13  1  0  0  0
  3  4  1  0  0  0
 13 14  1  0  0  0
 13 19  2  0  0  0
 14 15  2  0  0  0
 15 16  1  0  0  0
 16 17  2  0  0  0
 17 18  1  0  0  0
 17 19  1  0  0  0
 18 21  1  0  0  0
 19 20  1  0  0  0
  4  5  1  0  0  0
  4 10  2  0  0  0
  5  6  1  0  0  0
  5  7  2  0  0  0
  6 11  1  0  0  0
  6 12  1  0  0  0
  7  8  1  0  0  0
  8  9  2  0  0  0
  9 10  1  0  0  0
M  END
> <minimizedAffinity>
-7.33354

$$$$
