CHEMBL3656126


 44 48  0  0  0  0  0  0  0  0999 V2000
  -29.2810   -4.5371   -4.0315 C   0  0  0  0  0  0  0  0  0  0  0  0
  -30.6501   -4.4674   -3.7968 C   0  0  0  0  0  0  0  0  0  0  0  0
  -31.3220   -5.6452   -3.5212 C   0  0  0  0  0  0  0  0  0  0  0  0
  -30.7391   -6.8637   -3.5154 N   0  0  0  0  0  0  0  0  0  0  0  0
  -29.4179   -6.9091   -3.8071 C   0  0  0  0  0  0  0  0  0  0  0  0
  -28.6573   -5.7784   -4.0729 C   0  0  0  0  0  0  0  0  0  0  0  0
  -28.8471   -8.2516   -3.8336 C   0  0  0  0  0  0  0  0  0  0  0  0
  -27.5805   -8.7114   -3.5174 C   0  0  0  0  0  0  0  0  0  0  0  0
  -27.5239  -10.1215   -3.7473 C   0  0  0  0  0  0  0  0  0  0  0  0
  -28.7899  -10.4752   -4.1800 C   0  0  0  0  0  0  0  0  0  0  0  0
  -29.5734   -9.3534   -4.2276 N   0  0  0  0  0  0  0  0  0  0  0  0
  -30.5435   -9.3064   -4.5123 H   0  0  0  0  0  0  0  0  0  0  0  0
  -26.4077  -11.0491   -3.5828 C   0  0  0  0  0  0  0  0  0  0  0  0
  -26.5647  -12.2395   -3.3292 O   0  0  0  0  0  0  0  0  0  0  0  0
  -25.1599  -10.4789   -3.7423 N   0  0  0  0  0  0  0  0  0  0  0  0
  -25.0812   -9.5064   -3.9905 H   0  0  0  0  0  0  0  0  0  0  0  0
  -23.9399  -11.2469   -3.6028 C   0  0  0  0  0  0  0  0  0  0  0  0
  -23.5861  -12.0193   -4.8889 C   0  0  0  0  0  0  0  0  0  0  0  0
  -23.6610  -11.1871   -6.1068 N   0  0  0  0  0  0  0  0  0  0  0  0
  -23.4541  -12.0001   -7.3192 C   0  0  0  0  0  0  0  0  0  0  0  0
  -21.9493  -12.0718   -7.4903 C   0  0  0  0  0  0  0  0  0  0  0  0
  -21.4964  -10.6857   -7.0785 C   0  0  0  0  0  0  0  0  0  0  0  0
  -22.5910  -10.1698   -6.1501 C   0  0  0  0  0  0  0  0  0  0  0  0
  -28.4852   -3.4423   -4.2890 O   0  0  0  0  0  0  0  0  0  0  0  0
  -28.1319   -1.8483   -8.1348 C   0  0  0  0  0  0  0  0  0  0  0  0
  -28.5814   -3.1645   -7.9802 C   0  0  0  0  0  0  0  0  0  0  0  0
  -28.7283   -3.7188   -6.7096 C   0  0  0  0  0  0  0  0  0  0  0  0
  -28.3707   -2.9795   -5.5817 C   0  0  0  0  0  0  0  0  0  0  0  0
  -27.9247   -1.6628   -5.7326 C   0  0  0  0  0  0  0  0  0  0  0  0
  -27.7783   -1.1031   -7.0082 C   0  0  0  0  0  0  0  0  0  0  0  0
  -27.0645   -0.8250  -11.4413 N   0  0  0  0  0  0  0  0  0  0  0  0
  -27.0321   -1.5397  -10.2569 C   0  0  0  0  0  0  0  0  0  0  0  0
  -26.2001   -2.3923   -9.9753 O   0  0  0  0  0  0  0  0  0  0  0  0
  -28.1047   -1.2493   -9.4201 N   0  0  0  0  0  0  0  0  0  0  0  0
  -27.8972   -0.2932  -11.6249 H   0  0  0  0  0  0  0  0  0  0  0  0
  -28.9908   -1.1885   -9.8970 H   0  0  0  0  0  0  0  0  0  0  0  0
  -22.4929    0.1965  -13.0292 C   0  0  0  0  0  0  0  0  0  0  0  0
  -23.8501   -0.3975  -13.2738 C   0  0  0  0  0  0  0  0  0  0  0  0
  -24.1475   -0.9583  -14.5201 C   0  0  0  0  0  0  0  0  0  0  0  0
  -25.3881   -1.5425  -14.7393 C   0  0  0  0  0  0  0  0  0  0  0  0
  -26.3435   -1.5528  -13.7268 C   0  0  0  0  0  0  0  0  0  0  0  0
  -27.4529   -2.2607  -13.9789 F   0  0  0  0  0  0  0  0  0  0  0  0
  -26.1072   -0.9404  -12.4886 C   0  0  0  0  0  0  0  0  0  0  0  0
  -24.8342   -0.3918  -12.2627 C   0  0  0  0  0  0  0  0  0  0  0  0
 37 38  1  0  0  0
 38 39  1  0  0  0
 38 44  2  0  0  0
 39 40  2  0  0  0
 40 41  1  0  0  0
 41 42  1  0  0  0
 41 43  2  0  0  0
 43 31  1  0  0  0
 43 44  1  0  0  0
 31 32  1  0  0  0
 31 35  1  0  0  0
 32 33  2  0  0  0
 32 34  1  0  0  0
 34 25  1  0  0  0
 34 36  1  0  0  0
 25 26  1  0  0  0
 25 30  2  0  0  0
 26 27  2  0  0  0
 27 28  1  0  0  0
 28 24  1  0  0  0
 28 29  2  0  0  0
 24  1  1  0  0  0
  1  2  1  0  0  0
  1  6  2  0  0  0
  2  3  2  0  0  0
  3  4  1  0  0  0
  4  5  2  0  0  0
  5  7  1  0  0  0
  5  6  1  0  0  0
  7  8  2  0  0  0
  7 11  1  0  0  0
  8  9  1  0  0  0
  9 13  1  0  0  0
  9 10  2  0  0  0
 13 14  2  0  0  0
 13 15  1  0  0  0
 15 17  1  0  0  0
 15 16  1  0  0  0
 17 18  1  0  0  0
 18 19  1  0  0  0
 19 20  1  0  0  0
 19 23  1  0  0  0
 20 21  1  0  0  0
 21 22  1  0  0  0
 22 23  1  0  0  0
 10 11  1  0  0  0
 11 12  1  0  0  0
 29 30  1  0  0  0
M  END
> <minimizedAffinity>
-10.08122

$$$$
