CHEMBL3933568


 44 48  0  0  0  0  0  0  0  0999 V2000
  -28.1483   11.4152  -15.7168 C   0  0  0  0  0  0  0  0  0  0  0  0
  -26.8428   10.9770  -15.9331 C   0  0  0  0  0  0  0  0  0  0  0  0
  -25.7833   11.3844  -15.0961 C   0  0  0  0  0  0  0  0  0  0  0  0
  -24.4341   11.0937  -15.3452 C   0  0  0  0  0  0  0  0  0  0  0  0
  -23.4558   11.4933  -14.5091 N   0  0  0  0  0  0  0  0  0  0  0  0
  -23.8318   12.1921  -13.4373 C   0  0  0  0  0  0  0  0  0  0  0  0
  -25.0797   12.5641  -13.1330 N   0  0  0  0  0  0  0  0  0  0  0  0
  -26.0494   12.1709  -13.9680 C   0  0  0  0  0  0  0  0  0  0  0  0
  -27.3688   12.5545  -13.7225 C   0  0  0  0  0  0  0  0  0  0  0  0
  -28.4212   12.1776  -14.5719 C   0  0  0  0  0  0  0  0  0  0  0  0
  -29.2515    9.8688  -17.2042 C   0  0  0  0  0  0  0  0  0  0  0  0
  -29.1601   11.1469  -16.5903 O   0  0  0  0  0  0  0  0  0  0  0  0
  -24.0845   10.3933  -16.5338 N   0  0  0  0  0  0  0  0  0  0  0  0
  -23.9688    9.4086  -16.3172 H   0  0  0  0  0  0  0  0  0  0  0  0
  -23.1666   10.8300  -17.5097 C   0  0  0  0  0  0  0  0  0  0  0  0
  -23.6365   11.3942  -18.6932 C   0  0  0  0  0  0  0  0  0  0  0  0
  -22.7496   11.7289  -19.7191 C   0  0  0  0  0  0  0  0  0  0  0  0
  -21.3723   11.5391  -19.5775 C   0  0  0  0  0  0  0  0  0  0  0  0
  -20.8892   11.1008  -18.3441 C   0  0  0  0  0  0  0  0  0  0  0  0
  -21.7815   10.7658  -17.3171 C   0  0  0  0  0  0  0  0  0  0  0  0
  -20.4535   11.7081  -20.6392 N   0  0  0  0  0  0  0  0  0  0  0  0
  -19.1157   11.3649  -20.6084 C   0  0  0  0  0  0  0  0  0  0  0  0
  -18.5753   10.7183  -19.7150 O   0  0  0  0  0  0  0  0  0  0  0  0
  -18.4163   11.8785  -21.6942 N   0  0  0  0  0  0  0  0  0  0  0  0
  -20.8101   12.0849  -21.5057 H   0  0  0  0  0  0  0  0  0  0  0  0
  -18.7309   12.7888  -21.9945 H   0  0  0  0  0  0  0  0  0  0  0  0
  -17.0272   11.6132  -21.8149 C   0  0  0  0  0  0  0  0  0  0  0  0
  -16.1062   12.6450  -21.5747 C   0  0  0  0  0  0  0  0  0  0  0  0
  -14.7395   12.4383  -21.7481 C   0  0  0  0  0  0  0  0  0  0  0  0
  -14.2780   11.1906  -22.1466 C   0  0  0  0  0  0  0  0  0  0  0  0
  -15.1841   10.1516  -22.3748 C   0  0  0  0  0  0  0  0  0  0  0  0
  -16.5675   10.3477  -22.2157 C   0  0  0  0  0  0  0  0  0  0  0  0
  -17.5069    9.2459  -22.6170 C   0  0  0  0  0  0  0  0  0  0  0  0
  -29.6636   12.6517  -14.1891 O   0  0  0  0  0  0  0  0  0  0  0  0
  -30.7143   11.6894  -14.3295 C   0  0  0  0  0  0  0  0  0  0  0  0
  -30.8810   10.8281  -13.0792 C   0  0  0  0  0  0  0  0  0  0  0  0
  -31.7696   11.5585  -12.0532 C   0  0  0  0  0  0  0  0  0  0  0  0
  -32.9776   10.8064  -11.6760 N   0  0  0  0  0  0  0  0  0  0  0  0
  -34.2119   11.4626  -12.1452 C   0  0  0  0  0  0  0  0  0  0  0  0
  -35.4811   10.6443  -11.8178 C   0  0  0  0  0  0  0  0  0  0  0  0
  -35.4669    9.2559  -12.3145 N   0  0  0  0  0  0  0  0  0  0  0  0
  -35.6232    9.2038  -13.7661 C   0  0  0  0  0  0  0  0  0  0  0  0
  -34.2138    8.6094  -11.8764 C   0  0  0  0  0  0  0  0  0  0  0  0
  -32.9193    9.4139  -12.1643 C   0  0  0  0  0  0  0  0  0  0  0  0
 11 12  1  0  0  0
 12  1  1  0  0  0
  1  2  1  0  0  0
  1 10  2  0  0  0
  2  3  2  0  0  0
  3  4  1  0  0  0
  3  8  1  0  0  0
  4 13  1  0  0  0
  4  5  2  0  0  0
 13 15  1  0  0  0
 13 14  1  0  0  0
 15 16  1  0  0  0
 15 20  2  0  0  0
 16 17  2  0  0  0
 17 18  1  0  0  0
 18 21  1  0  0  0
 18 19  2  0  0  0
 21 22  1  0  0  0
 21 25  1  0  0  0
 22 23  2  0  0  0
 22 24  1  0  0  0
 24 27  1  0  0  0
 24 26  1  0  0  0
 27 28  1  0  0  0
 27 32  2  0  0  0
 28 29  2  0  0  0
 29 30  1  0  0  0
 30 31  2  0  0  0
 31 32  1  0  0  0
 32 33  1  0  0  0
 19 20  1  0  0  0
  5  6  1  0  0  0
  6  7  2  0  0  0
  7  8  1  0  0  0
  8  9  2  0  0  0
  9 10  1  0  0  0
 10 34  1  0  0  0
 34 35  1  0  0  0
 35 36  1  0  0  0
 36 37  1  0  0  0
 37 38  1  0  0  0
 38 39  1  0  0  0
 38 44  1  0  0  0
 39 40  1  0  0  0
 40 41  1  0  0  0
 41 42  1  0  0  0
 41 43  1  0  0  0
 43 44  1  0  0  0
M  END
> <minimizedAffinity>
-5.93434

$$$$
