CHEMBL598377


 35 37  0  0  0  0  0  0  0  0999 V2000
  -16.1733    2.7473  -16.0831 C   0  0  0  0  0  0  0  0  0  0  0  0
  -14.8367    2.4395  -15.7907 C   0  0  0  0  0  0  0  0  0  0  0  0
  -14.4825    1.4763  -14.8633 C   0  0  0  0  0  0  0  0  0  0  0  0
  -13.1816    1.3262  -14.5978 N   0  0  0  0  0  0  0  0  0  0  0  0
  -12.8657    0.4465  -13.6471 C   0  0  0  0  0  0  0  0  0  0  0  0
  -13.7285   -0.3007  -12.9598 N   0  0  0  0  0  0  0  0  0  0  0  0
  -15.0375   -0.1594  -13.2530 C   0  0  0  0  0  0  0  0  0  0  0  0
  -15.4914    0.7486  -14.2267 C   0  0  0  0  0  0  0  0  0  0  0  0
  -16.8460    0.9972  -14.5737 C   0  0  0  0  0  0  0  0  0  0  0  0
  -17.1906    1.9727  -15.5188 C   0  0  0  0  0  0  0  0  0  0  0  0
  -15.4224    4.2824  -17.7071 C   0  0  0  0  0  0  0  0  0  0  0  0
  -16.4944    3.8081  -16.8891 O   0  0  0  0  0  0  0  0  0  0  0  0
  -15.9729   -0.9486  -12.5280 N   0  0  0  0  0  0  0  0  0  0  0  0
  -16.9115   -0.7413  -12.8555 H   0  0  0  0  0  0  0  0  0  0  0  0
  -15.7774   -2.3159  -12.2269 C   0  0  0  0  0  0  0  0  0  0  0  0
  -15.6412   -2.7402  -10.8934 C   0  0  0  0  0  0  0  0  0  0  0  0
  -15.3793   -4.0748  -10.5849 C   0  0  0  0  0  0  0  0  0  0  0  0
  -15.2591   -4.9993  -11.6131 C   0  0  0  0  0  0  0  0  0  0  0  0
  -14.9806   -6.2741  -11.3032 F   0  0  0  0  0  0  0  0  0  0  0  0
  -15.4196   -4.6047  -12.9402 C   0  0  0  0  0  0  0  0  0  0  0  0
  -15.2673   -5.7519  -14.2166 Cl  0  0  0  0  0  0  0  0  0  0  0  0
  -15.6880   -3.2679  -13.2494 C   0  0  0  0  0  0  0  0  0  0  0  0
  -18.5415    2.1204  -15.7036 O   0  0  0  0  0  0  0  0  0  0  0  0
  -19.1376    3.2855  -15.1225 C   0  0  0  0  0  0  0  0  0  0  0  0
  -20.5882    2.9540  -14.7503 C   0  0  0  0  0  0  0  0  0  0  0  0
  -20.8758    1.4597  -14.9106 C   0  0  0  0  0  0  0  0  0  0  0  0
  -21.5038    0.8433  -13.6564 C   0  0  0  0  0  0  0  0  0  0  0  0
  -22.8013    0.1114  -14.0097 C   0  0  0  0  0  0  0  0  0  0  0  0
  -23.0464   -1.1004  -13.1084 C   0  0  0  0  0  0  0  0  0  0  0  0
  -24.1235   -0.8268  -12.0763 C   0  0  0  0  0  0  0  0  0  0  0  0
  -24.5735    0.2858  -11.8143 O   0  0  0  0  0  0  0  0  0  0  0  0
  -24.5771   -1.9593  -11.4425 N   0  0  0  0  0  0  0  0  0  0  0  0
  -25.5162   -1.7514  -10.4064 O   0  0  0  0  0  0  0  0  0  0  0  0
  -24.0804   -2.8431  -11.4382 H   0  0  0  0  0  0  0  0  0  0  0  0
  -25.6515   -0.7780  -10.4373 H   0  0  0  0  0  0  0  0  0  0  0  0
 11 12  1  0  0  0
 12  1  1  0  0  0
  1  2  1  0  0  0
  1 10  2  0  0  0
  2  3  2  0  0  0
  3  4  1  0  0  0
  3  8  1  0  0  0
  4  5  2  0  0  0
  5  6  1  0  0  0
  6  7  2  0  0  0
  7 13  1  0  0  0
  7  8  1  0  0  0
 13 15  1  0  0  0
 13 14  1  0  0  0
 15 16  1  0  0  0
 15 22  2  0  0  0
 16 17  2  0  0  0
 17 18  1  0  0  0
 18 19  1  0  0  0
 18 20  2  0  0  0
 20 21  1  0  0  0
 20 22  1  0  0  0
  8  9  2  0  0  0
  9 10  1  0  0  0
 10 23  1  0  0  0
 23 24  1  0  0  0
 24 25  1  0  0  0
 25 26  1  0  0  0
 26 27  1  0  0  0
 27 28  1  0  0  0
 28 29  1  0  0  0
 29 30  1  0  0  0
 30 31  2  0  0  0
 30 32  1  0  0  0
 32 33  1  0  0  0
 32 34  1  0  0  0
 33 35  1  0  0  0
M  END
> <minimizedAffinity>
-8.74976

$$$$
