CHEMBL1681944


 34 36  0  0  0  0  0  0  0  0999 V2000
  -26.3545  -10.3731   -5.3189 C   0  0  0  0  0  0  0  0  0  0  0  0
  -25.9226   -9.4864   -4.3278 C   0  0  0  0  0  0  0  0  0  0  0  0
  -26.5954   -8.2876   -4.1104 C   0  0  0  0  0  0  0  0  0  0  0  0
  -27.6743   -7.9302   -4.9114 C   0  0  0  0  0  0  0  0  0  0  0  0
  -28.0296   -8.7769   -5.9806 C   0  0  0  0  0  0  0  0  0  0  0  0
  -29.3117   -8.3742   -7.0677 Cl  0  0  0  0  0  0  0  0  0  0  0  0
  -27.3736   -9.9994   -6.1855 C   0  0  0  0  0  0  0  0  0  0  0  0
  -28.3852   -6.7313   -4.6900 N   0  0  0  0  0  0  0  0  0  0  0  0
  -29.3486   -6.4706   -3.7429 C   0  0  0  0  0  0  0  0  0  0  0  0
  -29.8692   -7.3017   -3.0010 O   0  0  0  0  0  0  0  0  0  0  0  0
  -29.7239   -5.1607   -3.5947 N   0  0  0  0  0  0  0  0  0  0  0  0
  -28.2143   -5.9835   -5.3626 H   0  0  0  0  0  0  0  0  0  0  0  0
  -30.3478   -4.9511   -2.8312 H   0  0  0  0  0  0  0  0  0  0  0  0
  -29.2455   -4.1472   -4.3616 C   0  0  0  0  0  0  0  0  0  0  0  0
  -29.1742   -4.1332   -5.6664 N   0  0  0  0  0  0  0  0  0  0  0  0
  -28.5834   -2.9675   -6.0983 C   0  0  0  0  0  0  0  0  0  0  0  0
  -28.4169   -2.7767   -7.5614 C   0  0  0  0  0  0  0  0  0  0  0  0
  -28.1909   -2.1141   -5.0803 C   0  0  0  0  0  0  0  0  0  0  0  0
  -27.4718   -0.8182   -5.1623 C   0  0  0  0  0  0  0  0  0  0  0  0
  -28.6621   -2.7698   -3.5570 S   0  0  0  0  0  0  0  0  0  0  0  0
  -25.7791  -11.6209   -5.4629 O   0  0  0  0  0  0  0  0  0  0  0  0
  -23.5241  -11.9874   -4.7418 C   0  0  0  0  0  0  0  0  0  0  0  0
  -22.1810  -11.9678   -5.0977 C   0  0  0  0  0  0  0  0  0  0  0  0
  -21.1659  -12.3737   -4.2349 N   0  0  0  0  0  0  0  0  0  0  0  0
  -21.7607  -11.6718   -6.3407 N   0  0  0  0  0  0  0  0  0  0  0  0
  -22.7026  -11.3512   -7.2315 C   0  0  0  0  0  0  0  0  0  0  0  0
  -24.0109  -11.2842   -6.9841 N   0  0  0  0  0  0  0  0  0  0  0  0
  -24.4092  -11.6388   -5.7402 C   0  0  0  0  0  0  0  0  0  0  0  0
  -21.3119  -12.0185   -3.2900 H   0  0  0  0  0  0  0  0  0  0  0  0
  -20.2638  -12.1482   -4.6385 H   0  0  0  0  0  0  0  0  0  0  0  0
  -23.4950  -11.7488   -2.3448 N   0  0  0  0  0  0  0  0  0  0  0  0
  -23.9751  -12.3476   -3.3901 C   0  0  0  0  0  0  0  0  0  0  0  0
  -25.4613  -12.4641   -1.4285 C   0  0  0  0  0  0  0  0  0  0  0  0
  -24.0688  -12.2842   -1.1852 O   0  0  0  0  0  0  0  0  0  0  0  0
 33 34  1  0  0  0
 34 31  1  0  0  0
 31 32  2  0  0  0
 32 22  1  0  0  0
 22 23  1  0  0  0
 22 28  2  0  0  0
 23 24  1  0  0  0
 23 25  2  0  0  0
 24 29  1  0  0  0
 24 30  1  0  0  0
 25 26  1  0  0  0
 26 27  2  0  0  0
 27 28  1  0  0  0
 28 21  1  0  0  0
 21  1  1  0  0  0
  1  2  1  0  0  0
  1  7  2  0  0  0
  2  3  2  0  0  0
  3  4  1  0  0  0
  4  8  1  0  0  0
  4  5  2  0  0  0
  8  9  1  0  0  0
  8 12  1  0  0  0
  9 10  2  0  0  0
  9 11  1  0  0  0
 11 14  1  0  0  0
 11 13  1  0  0  0
 14 15  2  0  0  0
 14 20  1  0  0  0
 15 16  1  0  0  0
 16 17  1  0  0  0
 16 18  2  0  0  0
 18 19  1  0  0  0
 18 20  1  0  0  0
  5  6  1  0  0  0
  5  7  1  0  0  0
M  END
> <minimizedAffinity>
-7.49477

$$$$
