CHEMBL3288503


 34 38  0  0  0  0  0  0  0  0999 V2000
  -27.6928   -2.0793   -8.8105 C   0  0  0  0  0  0  0  0  0  0  0  0
  -27.8101   -1.0315   -7.8373 C   0  0  0  0  0  0  0  0  0  0  0  0
  -28.2138   -1.2825   -6.5421 C   0  0  0  0  0  0  0  0  0  0  0  0
  -28.8287   -2.4734   -6.3143 C   0  0  0  0  0  0  0  0  0  0  0  0
  -29.0585   -3.3018   -7.4106 C   0  0  0  0  0  0  0  0  0  0  0  0
  -30.0529   -4.2354   -7.3768 C   0  0  0  0  0  0  0  0  0  0  0  0
  -29.5585   -5.3841   -6.8558 C   0  0  0  0  0  0  0  0  0  0  0  0
  -28.5628   -5.8373   -7.7298 C   0  0  0  0  0  0  0  0  0  0  0  0
  -27.9497   -4.8602   -8.6584 C   0  0  0  0  0  0  0  0  0  0  0  0
  -28.1587   -3.4081   -8.4318 C   0  0  0  0  0  0  0  0  0  0  0  0
  -30.1072   -5.6880   -5.4970 C   0  0  0  0  0  0  0  0  0  0  0  0
  -31.1638   -4.8119   -5.0125 C   0  0  0  0  0  0  0  0  0  0  0  0
  -31.7008   -4.8076   -3.7333 C   0  0  0  0  0  0  0  0  0  0  0  0
  -31.2614   -5.7453   -2.8296 C   0  0  0  0  0  0  0  0  0  0  0  0
  -30.2598   -6.6235   -3.2585 C   0  0  0  0  0  0  0  0  0  0  0  0
  -29.6638   -7.6342   -2.5592 N   0  0  0  0  0  0  0  0  0  0  0  0
  -28.6689   -8.2370   -3.2090 N   0  0  0  0  0  0  0  0  0  0  0  0
  -28.6311   -7.6082   -4.3860 C   0  0  0  0  0  0  0  0  0  0  0  0
  -27.7233   -7.9470   -5.3089 N   0  0  0  0  0  0  0  0  0  0  0  0
  -29.6371   -6.6063   -4.5225 C   0  0  0  0  0  0  0  0  0  0  0  0
  -29.9004   -7.9472   -1.6215 H   0  0  0  0  0  0  0  0  0  0  0  0
  -27.0496   -8.6443   -5.0122 H   0  0  0  0  0  0  0  0  0  0  0  0
  -27.3131   -7.2153   -5.8725 H   0  0  0  0  0  0  0  0  0  0  0  0
  -26.0456   -2.2605  -10.6915 N   0  0  0  0  0  0  0  0  0  0  0  0
  -27.0594   -1.5646  -10.0649 C   0  0  0  0  0  0  0  0  0  0  0  0
  -27.5341   -0.5229  -10.5111 O   0  0  0  0  0  0  0  0  0  0  0  0
  -25.8418   -3.1913  -10.3672 H   0  0  0  0  0  0  0  0  0  0  0  0
  -27.2451   -2.1058  -13.3561 C   0  0  0  0  0  0  0  0  0  0  0  0
  -25.8203   -1.7252  -13.0740 C   0  0  0  0  0  0  0  0  0  0  0  0
  -25.0096   -1.3463  -14.1658 C   0  0  0  0  0  0  0  0  0  0  0  0
  -23.6944   -0.9240  -13.9851 C   0  0  0  0  0  0  0  0  0  0  0  0
  -23.1722   -0.8697  -12.7059 C   0  0  0  0  0  0  0  0  0  0  0  0
  -23.9526   -1.2770  -11.6222 C   0  0  0  0  0  0  0  0  0  0  0  0
  -25.2750   -1.7401  -11.7784 C   0  0  0  0  0  0  0  0  0  0  0  0
 28 29  1  0  0  0
 29 30  1  0  0  0
 29 34  2  0  0  0
 30 31  2  0  0  0
 31 32  1  0  0  0
 32 33  2  0  0  0
 33 34  1  0  0  0
 34 24  1  0  0  0
 24 25  1  0  0  0
 24 27  1  0  0  0
 25 26  2  0  0  0
 25  1  1  0  0  0
  1  2  1  0  0  0
  1 10  2  0  0  0
  2  3  2  0  0  0
  3  4  1  0  0  0
  4  5  2  0  0  0
  5  6  1  0  0  0
  5 10  1  0  0  0
  6  7  2  0  0  0
  7 11  1  0  0  0
  7  8  1  0  0  0
 11 12  1  0  0  0
 11 20  2  0  0  0
 12 13  2  0  0  0
 13 14  1  0  0  0
 14 15  2  0  0  0
 15 16  1  0  0  0
 15 20  1  0  0  0
 16 17  1  0  0  0
 16 21  1  0  0  0
 17 18  2  0  0  0
 18 19  1  0  0  0
 18 20  1  0  0  0
 19 22  1  0  0  0
 19 23  1  0  0  0
  8  9  2  0  0  0
  9 10  1  0  0  0
M  END
> <minimizedAffinity>
-10.70997

$$$$
