CHEMBL3642839


 38 41  0  0  0  0  0  0  0  0999 V2000
  -30.9372   -7.8641   -6.7934 C   0  0  0  0  0  0  0  0  0  0  0  0
  -32.2947   -8.0383   -7.0352 C   0  0  0  0  0  0  0  0  0  0  0  0
  -32.8236   -9.3143   -7.2259 C   0  0  0  0  0  0  0  0  0  0  0  0
  -32.0020  -10.4514   -7.2075 C   0  0  0  0  0  0  0  0  0  0  0  0
  -32.6664  -11.7955   -7.3075 C   0  0  0  0  0  0  0  0  0  0  0  0
  -30.6070  -10.2867   -7.1089 C   0  0  0  0  0  0  0  0  0  0  0  0
  -30.1070   -8.9905   -6.8635 C   0  0  0  0  0  0  0  0  0  0  0  0
  -30.5038   -5.9249   -5.3034 C   0  0  0  0  0  0  0  0  0  0  0  0
  -31.1404   -6.3149   -4.3297 O   0  0  0  0  0  0  0  0  0  0  0  0
  -30.3477   -6.6121   -6.4952 N   0  0  0  0  0  0  0  0  0  0  0  0
  -29.7365   -6.2333   -7.2051 H   0  0  0  0  0  0  0  0  0  0  0  0
  -28.5114   -2.1809   -4.6908 C   0  0  0  0  0  0  0  0  0  0  0  0
  -28.4442   -2.7737   -5.9531 C   0  0  0  0  0  0  0  0  0  0  0  0
  -29.0914   -3.9942   -6.1988 C   0  0  0  0  0  0  0  0  0  0  0  0
  -29.8377   -4.5982   -5.1807 C   0  0  0  0  0  0  0  0  0  0  0  0
  -29.9244   -3.9723   -3.9270 C   0  0  0  0  0  0  0  0  0  0  0  0
  -29.2635   -2.7708   -3.6798 C   0  0  0  0  0  0  0  0  0  0  0  0
  -27.8284   -0.9580   -4.4379 N   0  0  0  0  0  0  0  0  0  0  0  0
  -27.7135   -0.7131   -3.4564 H   0  0  0  0  0  0  0  0  0  0  0  0
  -28.3003    0.4075   -5.3278 S   0  0  0  0  0  0  0  0  0  0  0  0
  -27.7534    0.2715   -6.6614 O   0  0  0  0  0  0  0  0  0  0  0  0
  -27.9340    1.5379   -4.4963 O   0  0  0  0  0  0  0  0  0  0  0  0
  -30.7142    1.3182   -6.0765 C   0  0  0  0  0  0  0  0  0  0  0  0
  -30.0365    0.3549   -5.4349 C   0  0  0  0  0  0  0  0  0  0  0  0
  -29.7212  -11.3724   -7.2695 N   0  0  0  0  0  0  0  0  0  0  0  0
  -30.1033  -12.3050   -7.2302 H   0  0  0  0  0  0  0  0  0  0  0  0
  -28.5171  -11.4025   -7.9831 C   0  0  0  0  0  0  0  0  0  0  0  0
  -28.5838  -11.4233   -9.3191 N   0  0  0  0  0  0  0  0  0  0  0  0
  -27.4112  -11.3955   -9.9844 C   0  0  0  0  0  0  0  0  0  0  0  0
  -26.1807  -11.3024   -9.3743 C   0  0  0  0  0  0  0  0  0  0  0  0
  -26.1954  -11.2521   -7.9992 C   0  0  0  0  0  0  0  0  0  0  0  0
  -27.3549  -11.3310   -7.3203 N   0  0  0  0  0  0  0  0  0  0  0  0
  -25.0076  -11.0476   -7.1517 C   0  0  0  0  0  0  0  0  0  0  0  0
  -23.7429  -11.5808   -7.4341 C   0  0  0  0  0  0  0  0  0  0  0  0
  -22.6566  -11.3086   -6.5991 C   0  0  0  0  0  0  0  0  0  0  0  0
  -22.8588  -10.5124   -5.4855 C   0  0  0  0  0  0  0  0  0  0  0  0
  -24.0544   -9.9905   -5.1550 N   0  0  0  0  0  0  0  0  0  0  0  0
  -25.0881  -10.2682   -5.9890 C   0  0  0  0  0  0  0  0  0  0  0  0
 23 24  2  0  0  0
 24 20  1  0  0  0
 20 21  2  0  0  0
 20 22  2  0  0  0
 20 18  1  0  0  0
 18 12  1  0  0  0
 18 19  1  0  0  0
 12 13  1  0  0  0
 12 17  2  0  0  0
 13 14  2  0  0  0
 14 15  1  0  0  0
 15  8  1  0  0  0
 15 16  2  0  0  0
  8  9  2  0  0  0
  8 10  1  0  0  0
 10  1  1  0  0  0
 10 11  1  0  0  0
  1  2  1  0  0  0
  1  7  2  0  0  0
  2  3  2  0  0  0
  3  4  1  0  0  0
  4  5  1  0  0  0
  4  6  2  0  0  0
  6 25  1  0  0  0
  6  7  1  0  0  0
 25 27  1  0  0  0
 25 26  1  0  0  0
 27 28  1  0  0  0
 27 32  2  0  0  0
 28 29  2  0  0  0
 29 30  1  0  0  0
 30 31  2  0  0  0
 31 33  1  0  0  0
 31 32  1  0  0  0
 33 34  1  0  0  0
 33 38  2  0  0  0
 34 35  2  0  0  0
 35 36  1  0  0  0
 36 37  2  0  0  0
 37 38  1  0  0  0
 16 17  1  0  0  0
M  END
> <minimizedAffinity>
-8.54144

$$$$
