CHEMBL3752248


 28 30  0  0  0  0  0  0  0  0999 V2000
  -29.8887   -6.4161   -5.2670 C   0  0  0  0  0  0  0  0  0  0  0  0
  -29.5046   -5.1044   -4.9346 C   0  0  0  0  0  0  0  0  0  0  0  0
  -29.4064   -4.0863   -5.9023 C   0  0  0  0  0  0  0  0  0  0  0  0
  -29.7640   -4.4188   -7.2182 C   0  0  0  0  0  0  0  0  0  0  0  0
  -30.1758   -5.7166   -7.5487 C   0  0  0  0  0  0  0  0  0  0  0  0
  -30.2413   -6.7240   -6.5838 C   0  0  0  0  0  0  0  0  0  0  0  0
  -28.9834   -9.2490   -3.3160 O   0  0  0  0  0  0  0  0  0  0  0  0
  -28.7941   -8.3729   -4.1468 C   0  0  0  0  0  0  0  0  0  0  0  0
  -27.6565   -8.1563   -4.8803 N   0  0  0  0  0  0  0  0  0  0  0  0
  -29.7781   -7.4148   -4.2917 N   0  0  0  0  0  0  0  0  0  0  0  0
  -27.5243   -7.2674   -5.3249 H   0  0  0  0  0  0  0  0  0  0  0  0
  -30.3985   -7.3932   -3.4892 H   0  0  0  0  0  0  0  0  0  0  0  0
  -26.5212   -8.8920   -4.6694 C   0  0  0  0  0  0  0  0  0  0  0  0
  -25.5418   -8.6961   -3.8292 N   0  0  0  0  0  0  0  0  0  0  0  0
  -24.5656   -9.6513   -4.0266 C   0  0  0  0  0  0  0  0  0  0  0  0
  -24.8328  -10.5759   -5.0147 C   0  0  0  0  0  0  0  0  0  0  0  0
  -26.3744  -10.2526   -5.6984 S   0  0  0  0  0  0  0  0  0  0  0  0
  -28.9083   -2.7425   -5.5495 C   0  0  0  0  0  0  0  0  0  0  0  0
  -29.7293   -1.6256   -5.4586 C   0  0  0  0  0  0  0  0  0  0  0  0
  -29.3101   -0.3737   -5.1685 N   0  0  0  0  0  0  0  0  0  0  0  0
  -27.9973   -0.2400   -4.9443 C   0  0  0  0  0  0  0  0  0  0  0  0
  -27.0958   -1.2304   -4.9719 N   0  0  0  0  0  0  0  0  0  0  0  0
  -27.5794   -2.4572   -5.2735 C   0  0  0  0  0  0  0  0  0  0  0  0
  -30.6267   -7.9365   -7.0698 O   0  0  0  0  0  0  0  0  0  0  0  0
  -29.6844   -8.7516   -7.7570 C   0  0  0  0  0  0  0  0  0  0  0  0
  -28.4695   -8.1837   -7.9019 F   0  0  0  0  0  0  0  0  0  0  0  0
  -29.5144   -9.8953   -7.0568 F   0  0  0  0  0  0  0  0  0  0  0  0
  -30.1841   -9.0652   -8.9702 F   0  0  0  0  0  0  0  0  0  0  0  0
  7  8  2  0  0  0
  8  9  1  0  0  0
  8 10  1  0  0  0
  9 13  1  0  0  0
  9 11  1  0  0  0
 13 14  2  0  0  0
 13 17  1  0  0  0
 14 15  1  0  0  0
 15 16  2  0  0  0
 16 17  1  0  0  0
 10  1  1  0  0  0
 10 12  1  0  0  0
  1  2  1  0  0  0
  1  6  2  0  0  0
  2  3  2  0  0  0
  3 18  1  0  0  0
  3  4  1  0  0  0
 18 19  1  0  0  0
 18 23  2  0  0  0
 19 20  2  0  0  0
 20 21  1  0  0  0
 21 22  2  0  0  0
 22 23  1  0  0  0
  4  5  2  0  0  0
  5  6  1  0  0  0
  6 24  1  0  0  0
 24 25  1  0  0  0
 25 26  1  0  0  0
 25 27  1  0  0  0
 25 28  1  0  0  0
M  END
> <minimizedAffinity>
-7.61238

$$$$
