CHEMBL213270


 43 48  0  0  0  0  0  0  0  0999 V2000
  -28.5853   -2.6354   -5.5617 C   0  0  0  0  0  0  0  0  0  0  0  0
  -29.9301   -2.7205   -5.8674 C   0  0  0  0  0  0  0  0  0  0  0  0
  -30.3897   -4.0727   -5.9769 C   0  0  0  0  0  0  0  0  0  0  0  0
  -29.3969   -5.0012   -5.7343 C   0  0  0  0  0  0  0  0  0  0  0  0
  -27.9355   -4.2058   -5.3021 S   0  0  0  0  0  0  0  0  0  0  0  0
  -29.4943   -6.4373   -5.8023 C   0  0  0  0  0  0  0  0  0  0  0  0
  -30.4910   -7.1080   -6.4955 N   0  0  0  0  0  0  0  0  0  0  0  0
  -30.4180   -8.4629   -6.4446 N   0  0  0  0  0  0  0  0  0  0  0  0
  -29.3485   -8.6456   -5.6857 C   0  0  0  0  0  0  0  0  0  0  0  0
  -28.7434   -7.4542   -5.2572 C   0  0  0  0  0  0  0  0  0  0  0  0
  -27.5432   -7.6851   -4.3960 C   0  0  0  0  0  0  0  0  0  0  0  0
  -27.5553   -9.2238   -4.4228 C   0  0  0  0  0  0  0  0  0  0  0  0
  -26.6532  -10.0784   -3.8037 C   0  0  0  0  0  0  0  0  0  0  0  0
  -26.8279  -11.4723   -3.9358 C   0  0  0  0  0  0  0  0  0  0  0  0
  -27.9136  -11.9746   -4.6979 C   0  0  0  0  0  0  0  0  0  0  0  0
  -28.8259  -11.1195   -5.3210 C   0  0  0  0  0  0  0  0  0  0  0  0
  -28.6280   -9.7629   -5.1740 C   0  0  0  0  0  0  0  0  0  0  0  0
  -31.2491   -6.6898   -7.0233 H   0  0  0  0  0  0  0  0  0  0  0  0
  -25.8525  -12.4370   -3.2791 C   0  0  0  0  0  0  0  0  0  0  0  0
  -24.5271  -12.4640   -3.9161 N   0  0  0  0  0  0  0  0  0  0  0  0
  -24.6132  -12.4376   -5.3883 C   0  0  0  0  0  0  0  0  0  0  0  0
  -23.2094  -12.4629   -6.0375 C   0  0  0  0  0  0  0  0  0  0  0  0
  -22.3038  -11.3799   -5.6054 N   0  0  0  0  0  0  0  0  0  0  0  0
  -22.6662  -10.1016   -6.2109 C   0  0  0  0  0  0  0  0  0  0  0  0
  -22.3013  -11.3094   -4.1301 C   0  0  0  0  0  0  0  0  0  0  0  0
  -23.6996  -11.3259   -3.4616 C   0  0  0  0  0  0  0  0  0  0  0  0
  -27.7301   -1.4009   -5.3774 C   0  0  0  0  0  0  0  0  0  0  0  0
  -28.1627   -0.3060   -6.2542 N   0  0  0  0  0  0  0  0  0  0  0  0
  -28.0333   -0.2720   -7.6470 C   0  0  0  0  0  0  0  0  0  0  0  0
  -28.5642    0.6420   -8.2831 O   0  0  0  0  0  0  0  0  0  0  0  0
  -27.3254   -1.2936   -8.2373 N   0  0  0  0  0  0  0  0  0  0  0  0
  -27.2544   -2.1515   -7.7164 H   0  0  0  0  0  0  0  0  0  0  0  0
  -27.1164   -1.4017   -9.6375 C   0  0  0  0  0  0  0  0  0  0  0  0
  -28.1692   -1.4673  -10.5573 C   0  0  0  0  0  0  0  0  0  0  0  0
  -27.9298   -1.7021  -11.9090 C   0  0  0  0  0  0  0  0  0  0  0  0
  -26.6265   -1.8543  -12.3680 C   0  0  0  0  0  0  0  0  0  0  0  0
  -25.5498   -1.7448  -11.4783 C   0  0  0  0  0  0  0  0  0  0  0  0
  -24.1462   -1.9178  -11.9708 C   0  0  0  0  0  0  0  0  0  0  0  0
  -25.8039   -1.4880  -10.1192 C   0  0  0  0  0  0  0  0  0  0  0  0
  -28.9635    0.8134   -5.7296 C   0  0  0  0  0  0  0  0  0  0  0  0
  -30.4851    0.7257   -5.6295 C   0  0  0  0  0  0  0  0  0  0  0  0
  -31.6636    2.0921   -7.1336 C   0  0  0  0  0  0  0  0  0  0  0  0
  -31.0990    1.9997   -5.8294 O   0  0  0  0  0  0  0  0  0  0  0  0
 42 43  1  0  0  0
 43 41  1  0  0  0
 41 40  1  0  0  0
 40 28  1  0  0  0
 28 27  1  0  0  0
 28 29  1  0  0  0
 27  1  1  0  0  0
  1  2  2  0  0  0
  1  5  1  0  0  0
  2  3  1  0  0  0
  3  4  2  0  0  0
  4  6  1  0  0  0
  4  5  1  0  0  0
  6  7  1  0  0  0
  6 10  2  0  0  0
  7  8  1  0  0  0
  7 18  1  0  0  0
  8  9  2  0  0  0
  9 10  1  0  0  0
  9 17  1  0  0  0
 10 11  1  0  0  0
 11 12  1  0  0  0
 12 13  1  0  0  0
 12 17  2  0  0  0
 13 14  2  0  0  0
 14 19  1  0  0  0
 14 15  1  0  0  0
 19 20  1  0  0  0
 20 21  1  0  0  0
 20 26  1  0  0  0
 21 22  1  0  0  0
 22 23  1  0  0  0
 23 24  1  0  0  0
 23 25  1  0  0  0
 25 26  1  0  0  0
 15 16  2  0  0  0
 16 17  1  0  0  0
 29 30  2  0  0  0
 29 31  1  0  0  0
 31 33  1  0  0  0
 31 32  1  0  0  0
 33 34  1  0  0  0
 33 39  2  0  0  0
 34 35  2  0  0  0
 35 36  1  0  0  0
 36 37  2  0  0  0
 37 38  1  0  0  0
 37 39  1  0  0  0
M  END
> <minimizedAffinity>
-7.48691

$$$$
