CHEMBL1940179


 35 40  0  0  0  0  0  0  0  0999 V2000
  -15.4908   -3.3128  -12.4581 C   0  0  0  0  0  0  0  0  0  0  0  0
  -15.8826   -2.0322  -12.9170 C   0  0  0  0  0  0  0  0  0  0  0  0
  -15.1240   -1.3024  -13.8392 C   0  0  0  0  0  0  0  0  0  0  0  0
  -13.9401   -1.8511  -14.3571 C   0  0  0  0  0  0  0  0  0  0  0  0
  -13.5641   -3.1318  -13.8923 C   0  0  0  0  0  0  0  0  0  0  0  0
  -14.2923   -3.8879  -12.9421 C   0  0  0  0  0  0  0  0  0  0  0  0
  -13.0605   -1.1159  -15.3926 C   0  0  0  0  0  0  0  0  0  0  0  0
  -11.6576   -0.8628  -14.7962 C   0  0  0  0  0  0  0  0  0  0  0  0
  -12.9405   -1.9761  -16.6693 C   0  0  0  0  0  0  0  0  0  0  0  0
  -13.6806    0.2154  -15.7522 C   0  0  0  0  0  0  0  0  0  0  0  0
  -13.1798    1.1071  -16.6645 N   0  0  0  0  0  0  0  0  0  0  0  0
  -13.9937    2.2192  -16.7308 C   0  0  0  0  0  0  0  0  0  0  0  0
  -13.8804    3.3752  -17.5113 C   0  0  0  0  0  0  0  0  0  0  0  0
  -14.8724    4.3582  -17.3645 C   0  0  0  0  0  0  0  0  0  0  0  0
  -15.9316    4.1826  -16.4723 C   0  0  0  0  0  0  0  0  0  0  0  0
  -16.0246    3.0181  -15.7024 C   0  0  0  0  0  0  0  0  0  0  0  0
  -15.0445    2.0189  -15.8305 C   0  0  0  0  0  0  0  0  0  0  0  0
  -14.8354    0.7497  -15.2249 C   0  0  0  0  0  0  0  0  0  0  0  0
  -15.6231    0.0516  -14.2305 C   0  0  0  0  0  0  0  0  0  0  0  0
  -16.6397    0.5239  -13.7322 O   0  0  0  0  0  0  0  0  0  0  0  0
  -12.3389    0.9820  -17.2122 H   0  0  0  0  0  0  0  0  0  0  0  0
  -13.7885   -5.1119  -12.5139 N   0  0  0  0  0  0  0  0  0  0  0  0
  -12.8369   -5.2171  -11.3921 C   0  0  0  0  0  0  0  0  0  0  0  0
  -11.4451   -5.6694  -11.8823 C   0  0  0  0  0  0  0  0  0  0  0  0
  -11.4359   -6.9492  -12.6263 N   0  0  0  0  0  0  0  0  0  0  0  0
  -12.3963   -6.8253  -13.7445 C   0  0  0  0  0  0  0  0  0  0  0  0
  -13.8043   -6.2765  -13.4114 C   0  0  0  0  0  0  0  0  0  0  0  0
  -11.7975   -8.0911  -11.7677 C   0  0  0  0  0  0  0  0  0  0  0  0
  -10.6977   -9.1797  -11.8237 C   0  0  0  0  0  0  0  0  0  0  0  0
  -11.7929  -10.2143  -12.1343 C   0  0  0  0  0  0  0  0  0  0  0  0
  -12.6969   -9.0559  -12.5838 C   0  0  0  0  0  0  0  0  0  0  0  0
  -17.0194   -5.2540  -11.7867 C   0  0  0  0  0  0  0  0  0  0  0  0
  -16.3949   -3.9143  -11.3947 C   0  0  0  0  0  0  0  0  0  0  0  0
  -14.7922    5.5613  -18.1452 C   0  0  0  0  0  0  0  0  0  0  0  0
  -14.7349    6.5343  -18.7725 N   0  0  0  0  0  0  0  0  0  0  0  0
 32 33  1  0  0  0
 33  1  1  0  0  0
  1  2  1  0  0  0
  1  6  2  0  0  0
  2  3  2  0  0  0
  3  4  1  0  0  0
  3 19  1  0  0  0
  4  5  2  0  0  0
  4  7  1  0  0  0
  5  6  1  0  0  0
  6 22  1  0  0  0
 22 23  1  0  0  0
 22 27  1  0  0  0
 23 24  1  0  0  0
 24 25  1  0  0  0
 25 28  1  0  0  0
 25 26  1  0  0  0
 28 29  1  0  0  0
 28 31  1  0  0  0
 29 30  1  0  0  0
 30 31  1  0  0  0
 26 27  1  0  0  0
  7  8  1  0  0  0
  7  9  1  0  0  0
  7 10  1  0  0  0
 10 11  1  0  0  0
 10 18  2  0  0  0
 11 12  1  0  0  0
 11 21  1  0  0  0
 12 13  1  0  0  0
 12 17  2  0  0  0
 13 14  2  0  0  0
 14 34  1  0  0  0
 14 15  1  0  0  0
 34 35  3  0  0  0
 15 16  2  0  0  0
 16 17  1  0  0  0
 17 18  1  0  0  0
 18 19  1  0  0  0
 19 20  2  0  0  0
M  END
> <minimizedAffinity>
-8.27920

$$$$
