CHEMBL3913774


 45 49  0  0  0  0  0  0  0  0999 V2000
  -27.9131   -2.0878  -10.3274 N   0  0  0  0  0  0  0  0  0  0  0  0
  -26.6746   -1.6626  -10.7831 C   0  0  0  0  0  0  0  0  0  0  0  0
  -25.7550   -1.2895  -10.0607 O   0  0  0  0  0  0  0  0  0  0  0  0
  -26.5666   -1.6361  -12.1675 N   0  0  0  0  0  0  0  0  0  0  0  0
  -28.6265   -2.2988  -11.0087 H   0  0  0  0  0  0  0  0  0  0  0  0
  -27.4111   -1.3678  -12.6506 H   0  0  0  0  0  0  0  0  0  0  0  0
  -25.3384   -1.2005  -12.7364 C   0  0  0  0  0  0  0  0  0  0  0  0
  -25.1687   -1.1531  -14.1280 C   0  0  0  0  0  0  0  0  0  0  0  0
  -23.9235   -0.8609  -14.6909 C   0  0  0  0  0  0  0  0  0  0  0  0
  -22.8411   -0.5443  -13.8676 C   0  0  0  0  0  0  0  0  0  0  0  0
  -23.0177   -0.5987  -12.4811 C   0  0  0  0  0  0  0  0  0  0  0  0
  -21.9762   -0.3821  -11.6638 F   0  0  0  0  0  0  0  0  0  0  0  0
  -24.2593   -0.9007  -11.9092 C   0  0  0  0  0  0  0  0  0  0  0  0
  -21.5823   -0.2386  -14.3509 O   0  0  0  0  0  0  0  0  0  0  0  0
  -21.2164    1.0877  -14.4988 C   0  0  0  0  0  0  0  0  0  0  0  0
  -21.9825    2.1480  -14.0261 C   0  0  0  0  0  0  0  0  0  0  0  0
  -21.5436    3.4248  -14.2893 C   0  0  0  0  0  0  0  0  0  0  0  0
  -20.3881    3.6949  -14.9188 N   0  0  0  0  0  0  0  0  0  0  0  0
  -19.6054    2.6764  -15.3103 C   0  0  0  0  0  0  0  0  0  0  0  0
  -19.9872    1.3507  -15.1192 C   0  0  0  0  0  0  0  0  0  0  0  0
  -18.3770    2.9647  -15.9295 N   0  0  0  0  0  0  0  0  0  0  0  0
  -17.1542    2.5183  -15.4626 C   0  0  0  0  0  0  0  0  0  0  0  0
  -16.9422    1.8392  -14.4664 O   0  0  0  0  0  0  0  0  0  0  0  0
  -18.3928    3.5459  -16.7566 H   0  0  0  0  0  0  0  0  0  0  0  0
  -15.9393    2.9105  -16.2400 C   0  0  0  0  0  0  0  0  0  0  0  0
  -15.2008    4.1790  -15.8819 C   0  0  0  0  0  0  0  0  0  0  0  0
  -15.8175    4.0296  -17.2430 C   0  0  0  0  0  0  0  0  0  0  0  0
  -28.8903   -2.1663   -6.1958 C   0  0  0  0  0  0  0  0  0  0  0  0
  -28.8759   -3.3369   -6.9438 C   0  0  0  0  0  0  0  0  0  0  0  0
  -28.6037   -3.3025   -8.3035 C   0  0  0  0  0  0  0  0  0  0  0  0
  -28.2785   -2.1148   -8.9556 C   0  0  0  0  0  0  0  0  0  0  0  0
  -28.2854   -0.9328   -8.2062 C   0  0  0  0  0  0  0  0  0  0  0  0
  -28.5629   -0.9490   -6.8105 C   0  0  0  0  0  0  0  0  0  0  0  0
  -28.4939    0.3519   -6.0466 C   0  0  0  0  0  0  0  0  0  0  0  0
  -27.5347    0.4432   -5.0864 F   0  0  0  0  0  0  0  0  0  0  0  0
  -28.2759    1.4146   -6.8767 F   0  0  0  0  0  0  0  0  0  0  0  0
  -29.6713    0.6317   -5.4119 F   0  0  0  0  0  0  0  0  0  0  0  0
  -29.2256   -2.1723   -4.8712 O   0  0  0  0  0  0  0  0  0  0  0  0
  -32.2636   -4.9731   -3.0241 C   0  0  0  0  0  0  0  0  0  0  0  0
  -30.8253   -4.6968   -3.0415 N   0  0  0  0  0  0  0  0  0  0  0  0
  -30.3046   -4.8875   -4.4012 C   0  0  0  0  0  0  0  0  0  0  0  0
  -28.8121   -4.5784   -4.4603 C   0  0  0  0  0  0  0  0  0  0  0  0
  -28.5514   -3.1312   -4.0247 C   0  0  0  0  0  0  0  0  0  0  0  0
  -29.0958   -2.9569   -2.6070 C   0  0  0  0  0  0  0  0  0  0  0  0
  -30.5757   -3.3349   -2.5401 C   0  0  0  0  0  0  0  0  0  0  0  0
 39 40  1  0  0  0
 40 41  1  0  0  0
 40 45  1  0  0  0
 41 42  1  0  0  0
 42 43  1  0  0  0
 43 38  1  0  0  0
 43 44  1  0  0  0
 38 28  1  0  0  0
 28 29  1  0  0  0
 28 33  2  0  0  0
 29 30  2  0  0  0
 30 31  1  0  0  0
 31  1  1  0  0  0
 31 32  2  0  0  0
  1  2  1  0  0  0
  1  5  1  0  0  0
  2  3  2  0  0  0
  2  4  1  0  0  0
  4  7  1  0  0  0
  4  6  1  0  0  0
  7  8  1  0  0  0
  7 13  2  0  0  0
  8  9  2  0  0  0
  9 10  1  0  0  0
 10 14  1  0  0  0
 10 11  2  0  0  0
 14 15  1  0  0  0
 15 16  1  0  0  0
 15 20  2  0  0  0
 16 17  2  0  0  0
 17 18  1  0  0  0
 18 19  2  0  0  0
 19 21  1  0  0  0
 19 20  1  0  0  0
 21 22  1  0  0  0
 21 24  1  0  0  0
 22 23  2  0  0  0
 22 25  1  0  0  0
 25 26  1  0  0  0
 25 27  1  0  0  0
 26 27  1  0  0  0
 11 12  1  0  0  0
 11 13  1  0  0  0
 32 33  1  0  0  0
 33 34  1  0  0  0
 34 35  1  0  0  0
 34 36  1  0  0  0
 34 37  1  0  0  0
 44 45  1  0  0  0
M  END
> <minimizedAffinity>
-11.98857

$$$$
