CHEMBL363590


 31 34  0  0  0  0  0  0  0  0999 V2000
  -19.9601    2.0523  -14.8103 C   0  0  0  0  0  0  0  0  0  0  0  0
  -20.6135    3.2057  -14.6731 N   0  0  0  0  0  0  0  0  0  0  0  0
  -21.8666    3.0817  -14.2658 C   0  0  0  0  0  0  0  0  0  0  0  0
  -22.4685    1.9423  -13.9719 N   0  0  0  0  0  0  0  0  0  0  0  0
  -21.7419    0.8401  -14.1443 C   0  0  0  0  0  0  0  0  0  0  0  0
  -20.4915    0.8426  -14.5889 N   0  0  0  0  0  0  0  0  0  0  0  0
  -16.2643    1.2298  -15.2010 C   0  0  0  0  0  0  0  0  0  0  0  0
  -15.9105    2.3532  -15.9478 C   0  0  0  0  0  0  0  0  0  0  0  0
  -16.7501    3.3582  -16.2845 N   0  0  0  0  0  0  0  0  0  0  0  0
  -18.0370    3.2175  -15.8912 C   0  0  0  0  0  0  0  0  0  0  0  0
  -18.5456    2.1237  -15.1917 C   0  0  0  0  0  0  0  0  0  0  0  0
  -17.6176    1.1204  -14.8623 C   0  0  0  0  0  0  0  0  0  0  0  0
  -15.3862    0.2010  -14.8572 N   0  0  0  0  0  0  0  0  0  0  0  0
  -15.6074   -0.6860  -15.3029 H   0  0  0  0  0  0  0  0  0  0  0  0
  -14.9616    0.0386  -13.4639 C   0  0  0  0  0  0  0  0  0  0  0  0
  -15.5017   -1.2558  -12.8472 C   0  0  0  0  0  0  0  0  0  0  0  0
  -16.2310   -3.2094  -14.0483 O   0  0  0  0  0  0  0  0  0  0  0  0
  -15.0820   -2.4756  -13.6525 C   0  0  0  0  0  0  0  0  0  0  0  0
  -15.9168   -3.9960  -14.5255 H   0  0  0  0  0  0  0  0  0  0  0  0
  -22.3194   -0.3973  -13.8604 N   0  0  0  0  0  0  0  0  0  0  0  0
  -21.6415   -1.1291  -13.7162 H   0  0  0  0  0  0  0  0  0  0  0  0
  -23.6479   -0.6590  -13.4974 C   0  0  0  0  0  0  0  0  0  0  0  0
  -24.6150   -1.0044  -14.4560 C   0  0  0  0  0  0  0  0  0  0  0  0
  -25.9041   -1.3832  -14.0867 C   0  0  0  0  0  0  0  0  0  0  0  0
  -26.2408   -1.4357  -12.7420 C   0  0  0  0  0  0  0  0  0  0  0  0
  -25.2922   -1.1000  -11.7704 C   0  0  0  0  0  0  0  0  0  0  0  0
  -24.0113   -0.6864  -12.1461 C   0  0  0  0  0  0  0  0  0  0  0  0
  -25.5467   -1.1755  -10.4233 O   0  0  0  0  0  0  0  0  0  0  0  0
  -26.6962   -1.9906  -10.1637 C   0  0  0  0  0  0  0  0  0  0  0  0
  -27.8448   -1.6047  -11.0809 C   0  0  0  0  0  0  0  0  0  0  0  0
  -27.5123   -1.8542  -12.4493 O   0  0  0  0  0  0  0  0  0  0  0  0
 17 18  1  0  0  0
 17 19  1  0  0  0
 18 16  1  0  0  0
 16 15  1  0  0  0
 15 13  1  0  0  0
 13  7  1  0  0  0
 13 14  1  0  0  0
  7  8  1  0  0  0
  7 12  2  0  0  0
  8  9  2  0  0  0
  9 10  1  0  0  0
 10 11  2  0  0  0
 11  1  1  0  0  0
 11 12  1  0  0  0
  1  2  1  0  0  0
  1  6  2  0  0  0
  2  3  2  0  0  0
  3  4  1  0  0  0
  4  5  2  0  0  0
  5 20  1  0  0  0
  5  6  1  0  0  0
 20 22  1  0  0  0
 20 21  1  0  0  0
 22 23  1  0  0  0
 22 27  2  0  0  0
 23 24  2  0  0  0
 24 25  1  0  0  0
 25 26  2  0  0  0
 25 31  1  0  0  0
 26 27  1  0  0  0
 26 28  1  0  0  0
 28 29  1  0  0  0
 29 30  1  0  0  0
 30 31  1  0  0  0
M  END
> <minimizedAffinity>
-9.08932

$$$$
