CHEMBL2010875


 40 46  0  0  0  0  0  0  0  0999 V2000
  -28.2315   -2.7399   -7.6585 C   0  0  0  0  0  0  0  0  0  0  0  0
  -28.6822   -2.3955   -6.3815 C   0  0  0  0  0  0  0  0  0  0  0  0
  -29.0144   -3.3581   -5.4344 C   0  0  0  0  0  0  0  0  0  0  0  0
  -28.9074   -4.7022   -5.7981 C   0  0  0  0  0  0  0  0  0  0  0  0
  -28.5211   -5.1094   -7.1037 C   0  0  0  0  0  0  0  0  0  0  0  0
  -28.1834   -4.1021   -8.0274 C   0  0  0  0  0  0  0  0  0  0  0  0
  -28.5958   -6.5004   -7.0529 C   0  0  0  0  0  0  0  0  0  0  0  0
  -28.3413   -7.5258   -7.9765 C   0  0  0  0  0  0  0  0  0  0  0  0
  -28.6123   -8.9147   -7.5214 C   0  0  0  0  0  0  0  0  0  0  0  0
  -28.9630   -9.2153   -6.1678 C   0  0  0  0  0  0  0  0  0  0  0  0
  -28.4067   -8.1859   -5.3880 C   0  0  0  0  0  0  0  0  0  0  0  0
  -28.7138   -6.9076   -5.7834 C   0  0  0  0  0  0  0  0  0  0  0  0
  -29.1394   -5.8319   -5.0629 N   0  0  0  0  0  0  0  0  0  0  0  0
  -27.0796   -8.5418   -4.7231 C   0  0  0  0  0  0  0  0  0  0  0  0
  -27.4906   -9.3780   -3.5490 C   0  0  0  0  0  0  0  0  0  0  0  0
  -28.2544  -10.5378   -4.0998 C   0  0  0  0  0  0  0  0  0  0  0  0
  -28.5892  -11.5173   -3.2764 N   0  0  0  0  0  0  0  0  0  0  0  0
  -29.8610  -11.7359   -3.6197 N   0  0  0  0  0  0  0  0  0  0  0  0
  -30.6351  -12.3947   -2.5883 C   0  0  0  0  0  0  0  0  0  0  0  0
  -30.2299  -11.0284   -4.7648 C   0  0  0  0  0  0  0  0  0  0  0  0
  -29.0619  -10.4580   -5.3155 C   0  0  0  0  0  0  0  0  0  0  0  0
  -28.1779   -9.7656   -8.6050 C   0  0  0  0  0  0  0  0  0  0  0  0
  -28.1364  -10.9805   -8.7437 O   0  0  0  0  0  0  0  0  0  0  0  0
  -27.6545   -8.8950   -9.5754 N   0  0  0  0  0  0  0  0  0  0  0  0
  -27.6844   -7.4730   -9.2835 C   0  0  0  0  0  0  0  0  0  0  0  0
  -27.1273   -9.2789  -10.3479 H   0  0  0  0  0  0  0  0  0  0  0  0
  -27.9286   -1.6944   -8.5373 N   0  0  0  0  0  0  0  0  0  0  0  0
  -28.0828   -0.7505   -8.2143 H   0  0  0  0  0  0  0  0  0  0  0  0
  -25.4486   -1.6203  -11.0430 C   0  0  0  0  0  0  0  0  0  0  0  0
  -26.1540   -1.5866  -12.2194 C   0  0  0  0  0  0  0  0  0  0  0  0
  -27.5147   -1.6129  -12.0888 C   0  0  0  0  0  0  0  0  0  0  0  0
  -28.1286   -1.6738  -10.8998 N   0  0  0  0  0  0  0  0  0  0  0  0
  -27.3568   -1.6910   -9.8001 C   0  0  0  0  0  0  0  0  0  0  0  0
  -26.0176   -1.6577   -9.8281 N   0  0  0  0  0  0  0  0  0  0  0  0
  -23.5981   -2.3247  -12.2927 C   0  0  0  0  0  0  0  0  0  0  0  0
  -24.0715   -1.6041  -11.1590 O   0  0  0  0  0  0  0  0  0  0  0  0
  -29.7757   -6.0820   -3.7873 C   0  0  0  0  0  0  0  0  0  0  0  0
  -31.2921   -5.9625   -3.6831 C   0  0  0  0  0  0  0  0  0  0  0  0
  -31.7724   -4.5402   -3.3836 C   0  0  0  0  0  0  0  0  0  0  0  0
  -31.8826   -6.4354   -5.0154 C   0  0  0  0  0  0  0  0  0  0  0  0
 35 36  1  0  0  0
 36 29  1  0  0  0
 29 30  1  0  0  0
 29 34  2  0  0  0
 30 31  2  0  0  0
 31 32  1  0  0  0
 32 33  2  0  0  0
 33 27  1  0  0  0
 33 34  1  0  0  0
 27  1  1  0  0  0
 27 28  1  0  0  0
  1  2  1  0  0  0
  1  6  2  0  0  0
  2  3  2  0  0  0
  3  4  1  0  0  0
  4  5  2  0  0  0
  4 13  1  0  0  0
  5  6  1  0  0  0
  5  7  1  0  0  0
  7  8  1  0  0  0
  7 12  2  0  0  0
  8  9  2  0  0  0
  8 25  1  0  0  0
  9 10  1  0  0  0
  9 22  1  0  0  0
 10 11  2  0  0  0
 10 21  1  0  0  0
 11 12  1  0  0  0
 11 14  1  0  0  0
 12 13  1  0  0  0
 13 37  1  0  0  0
 37 38  1  0  0  0
 38 39  1  0  0  0
 38 40  1  0  0  0
 14 15  1  0  0  0
 15 16  1  0  0  0
 16 17  2  0  0  0
 16 21  1  0  0  0
 17 18  1  0  0  0
 18 19  1  0  0  0
 18 20  1  0  0  0
 20 21  2  0  0  0
 22 23  2  0  0  0
 22 24  1  0  0  0
 24 25  1  0  0  0
 24 26  1  0  0  0
M  END
> <minimizedAffinity>
-9.74572

$$$$
