CHEMBL4516513


 49 54  0  0  0  0  0  0  0  0999 V2000
  -21.7386   -0.0772  -14.2633 O   0  0  0  0  0  0  0  0  0  0  0  0
  -21.6542    1.2982  -14.2584 C   0  0  0  0  0  0  0  0  0  0  0  0
  -22.8049    1.9829  -14.0711 N   0  0  0  0  0  0  0  0  0  0  0  0
  -22.6805    3.3044  -14.0648 C   0  0  0  0  0  0  0  0  0  0  0  0
  -21.5520    3.9781  -14.2839 N   0  0  0  0  0  0  0  0  0  0  0  0
  -20.4480    3.2600  -14.5214 C   0  0  0  0  0  0  0  0  0  0  0  0
  -19.2947    3.9658  -14.7738 C   0  0  0  0  0  0  0  0  0  0  0  0
  -18.0727    3.3490  -15.0611 C   0  0  0  0  0  0  0  0  0  0  0  0
  -18.0098    1.9496  -15.0835 C   0  0  0  0  0  0  0  0  0  0  0  0
  -19.1629    1.2068  -14.7870 C   0  0  0  0  0  0  0  0  0  0  0  0
  -20.4035    1.8692  -14.5279 C   0  0  0  0  0  0  0  0  0  0  0  0
  -19.1534   -0.1701  -14.7574 O   0  0  0  0  0  0  0  0  0  0  0  0
  -17.8337   -0.7174  -14.7057 C   0  0  0  0  0  0  0  0  0  0  0  0
  -16.9481   -0.0267  -15.7229 C   0  0  0  0  0  0  0  0  0  0  0  0
  -16.8064    1.3598  -15.3943 O   0  0  0  0  0  0  0  0  0  0  0  0
  -16.9256    4.0573  -15.3419 O   0  0  0  0  0  0  0  0  0  0  0  0
  -16.3563    3.8071  -16.6301 C   0  0  0  0  0  0  0  0  0  0  0  0
  -14.8712    4.1230  -16.6118 C   0  0  0  0  0  0  0  0  0  0  0  0
  -14.2757    3.8076  -15.2310 C   0  0  0  0  0  0  0  0  0  0  0  0
  -13.0543    2.9956  -15.2994 N   0  0  0  0  0  0  0  0  0  0  0  0
  -13.3563    1.5499  -15.2152 C   0  0  0  0  0  0  0  0  0  0  0  0
  -13.7116    1.0638  -13.7987 C   0  0  0  0  0  0  0  0  0  0  0  0
  -12.6835    1.3921  -12.8578 O   0  0  0  0  0  0  0  0  0  0  0  0
  -12.4302    2.8019  -12.8506 C   0  0  0  0  0  0  0  0  0  0  0  0
  -12.0597    3.3145  -14.2516 C   0  0  0  0  0  0  0  0  0  0  0  0
  -25.1289   -1.6129  -12.3993 C   0  0  0  0  0  0  0  0  0  0  0  0
  -23.8949   -1.5016  -11.7508 C   0  0  0  0  0  0  0  0  0  0  0  0
  -22.7771   -1.0172  -12.4195 C   0  0  0  0  0  0  0  0  0  0  0  0
  -22.8678   -0.6674  -13.7623 C   0  0  0  0  0  0  0  0  0  0  0  0
  -24.0822   -0.8360  -14.4318 C   0  0  0  0  0  0  0  0  0  0  0  0
  -24.2341   -0.4626  -15.7120 F   0  0  0  0  0  0  0  0  0  0  0  0
  -25.2033   -1.3332  -13.7657 C   0  0  0  0  0  0  0  0  0  0  0  0
  -25.4965   -1.8528   -9.5580 O   0  0  0  0  0  0  0  0  0  0  0  0
  -26.4326   -1.9861  -10.3375 C   0  0  0  0  0  0  0  0  0  0  0  0
  -26.3259   -1.9308  -11.7157 N   0  0  0  0  0  0  0  0  0  0  0  0
  -27.7383   -2.1593   -9.9241 N   0  0  0  0  0  0  0  0  0  0  0  0
  -27.1891   -1.8042  -12.2245 H   0  0  0  0  0  0  0  0  0  0  0  0
  -28.3644   -2.6597  -10.5419 H   0  0  0  0  0  0  0  0  0  0  0  0
  -28.1722   -2.0009   -8.5859 C   0  0  0  0  0  0  0  0  0  0  0  0
  -28.2361   -0.7528   -7.9516 C   0  0  0  0  0  0  0  0  0  0  0  0
  -28.6771   -0.6267   -6.6254 C   0  0  0  0  0  0  0  0  0  0  0  0
  -29.0692   -1.7818   -5.9329 C   0  0  0  0  0  0  0  0  0  0  0  0
  -29.0245   -3.0305   -6.5599 C   0  0  0  0  0  0  0  0  0  0  0  0
  -28.5847   -3.1294   -7.8776 C   0  0  0  0  0  0  0  0  0  0  0  0
  -28.5408   -4.3360   -8.4648 F   0  0  0  0  0  0  0  0  0  0  0  0
  -28.7398    0.7329   -5.9682 C   0  0  0  0  0  0  0  0  0  0  0  0
  -28.6287    1.7742   -6.8382 F   0  0  0  0  0  0  0  0  0  0  0  0
  -29.9150    0.9280   -5.3074 F   0  0  0  0  0  0  0  0  0  0  0  0
  -27.7563    0.9125   -5.0437 F   0  0  0  0  0  0  0  0  0  0  0  0
 33 34  2  0  0  0
 34 35  1  0  0  0
 34 36  1  0  0  0
 35 26  1  0  0  0
 35 37  1  0  0  0
 26 27  1  0  0  0
 26 32  2  0  0  0
 27 28  2  0  0  0
 28 29  1  0  0  0
 29  1  1  0  0  0
 29 30  2  0  0  0
  1  2  1  0  0  0
  2  3  1  0  0  0
  2 11  2  0  0  0
  3  4  2  0  0  0
  4  5  1  0  0  0
  5  6  2  0  0  0
  6  7  1  0  0  0
  6 11  1  0  0  0
  7  8  2  0  0  0
  8 16  1  0  0  0
  8  9  1  0  0  0
 16 17  1  0  0  0
 17 18  1  0  0  0
 18 19  1  0  0  0
 19 20  1  0  0  0
 20 21  1  0  0  0
 20 25  1  0  0  0
 21 22  1  0  0  0
 22 23  1  0  0  0
 23 24  1  0  0  0
 24 25  1  0  0  0
  9 10  2  0  0  0
  9 15  1  0  0  0
 10 11  1  0  0  0
 10 12  1  0  0  0
 12 13  1  0  0  0
 13 14  1  0  0  0
 14 15  1  0  0  0
 30 31  1  0  0  0
 30 32  1  0  0  0
 36 39  1  0  0  0
 36 38  1  0  0  0
 39 40  1  0  0  0
 39 44  2  0  0  0
 40 41  2  0  0  0
 41 46  1  0  0  0
 41 42  1  0  0  0
 46 47  1  0  0  0
 46 48  1  0  0  0
 46 49  1  0  0  0
 42 43  2  0  0  0
 43 44  1  0  0  0
 44 45  1  0  0  0
M  END
> <minimizedAffinity>
-7.70211

$$$$
