CHEMBL215813


 35 38  0  0  0  0  0  0  0  0999 V2000
  -29.8703  -11.0466   -5.9109 C   0  0  0  0  0  0  0  0  0  0  0  0
  -29.7841   -9.5835   -6.2718 C   0  0  0  0  0  0  0  0  0  0  0  0
  -30.9336   -9.0165   -6.8738 C   0  0  0  0  0  0  0  0  0  0  0  0
  -30.9965   -7.6642   -7.2112 C   0  0  0  0  0  0  0  0  0  0  0  0
  -29.8940   -6.8576   -6.9639 C   0  0  0  0  0  0  0  0  0  0  0  0
  -28.7315   -7.4232   -6.4102 C   0  0  0  0  0  0  0  0  0  0  0  0
  -28.6345   -8.7830   -6.0408 C   0  0  0  0  0  0  0  0  0  0  0  0
  -27.3583   -9.2613   -5.4280 C   0  0  0  0  0  0  0  0  0  0  0  0
  -27.1015   -9.1959   -4.0524 C   0  0  0  0  0  0  0  0  0  0  0  0
  -25.8716   -9.5960   -3.5031 C   0  0  0  0  0  0  0  0  0  0  0  0
  -24.8678  -10.1368   -4.2861 C   0  0  0  0  0  0  0  0  0  0  0  0
  -23.7063  -10.4982   -3.7213 N   0  0  0  0  0  0  0  0  0  0  0  0
  -22.7793  -11.0299   -4.5189 C   0  0  0  0  0  0  0  0  0  0  0  0
  -21.5729  -11.3683   -3.9386 N   0  0  0  0  0  0  0  0  0  0  0  0
  -22.9357  -11.2883   -5.8153 N   0  0  0  0  0  0  0  0  0  0  0  0
  -24.1087  -10.9108   -6.3576 C   0  0  0  0  0  0  0  0  0  0  0  0
  -25.1260  -10.2953   -5.6432 C   0  0  0  0  0  0  0  0  0  0  0  0
  -26.3428   -9.8463   -6.2118 C   0  0  0  0  0  0  0  0  0  0  0  0
  -21.7013  -11.5136   -2.9484 H   0  0  0  0  0  0  0  0  0  0  0  0
  -21.1362  -12.1097   -4.4699 H   0  0  0  0  0  0  0  0  0  0  0  0
  -29.8506   -5.4128   -7.3092 C   0  0  0  0  0  0  0  0  0  0  0  0
  -30.7748   -4.9820   -7.9944 O   0  0  0  0  0  0  0  0  0  0  0  0
  -28.7344   -4.7015   -6.8942 N   0  0  0  0  0  0  0  0  0  0  0  0
  -27.9762   -5.2396   -6.4991 H   0  0  0  0  0  0  0  0  0  0  0  0
  -28.4754   -3.3293   -7.1756 C   0  0  0  0  0  0  0  0  0  0  0  0
  -27.9358   -2.9338   -8.4063 C   0  0  0  0  0  0  0  0  0  0  0  0
  -27.6313   -1.6032   -8.6751 C   0  0  0  0  0  0  0  0  0  0  0  0
  -27.8695   -0.6352   -7.7126 C   0  0  0  0  0  0  0  0  0  0  0  0
  -28.4328   -0.9790   -6.4705 C   0  0  0  0  0  0  0  0  0  0  0  0
  -28.7585   -2.3394   -6.1990 C   0  0  0  0  0  0  0  0  0  0  0  0
  -29.3761   -2.7317   -4.8772 C   0  0  0  0  0  0  0  0  0  0  0  0
  -28.6522    0.1314   -5.4623 C   0  0  0  0  0  0  0  0  0  0  0  0
  -27.9429   -0.0280   -4.3080 F   0  0  0  0  0  0  0  0  0  0  0  0
  -28.2960    1.3552   -5.9424 F   0  0  0  0  0  0  0  0  0  0  0  0
  -29.9542    0.2388   -5.0748 F   0  0  0  0  0  0  0  0  0  0  0  0
  1  2  1  0  0  0
  2  3  1  0  0  0
  2  7  2  0  0  0
  3  4  2  0  0  0
  4  5  1  0  0  0
  5 21  1  0  0  0
  5  6  2  0  0  0
 21 22  2  0  0  0
 21 23  1  0  0  0
 23 25  1  0  0  0
 23 24  1  0  0  0
 25 26  1  0  0  0
 25 30  2  0  0  0
 26 27  2  0  0  0
 27 28  1  0  0  0
 28 29  2  0  0  0
 29 32  1  0  0  0
 29 30  1  0  0  0
 32 33  1  0  0  0
 32 34  1  0  0  0
 32 35  1  0  0  0
 30 31  1  0  0  0
  6  7  1  0  0  0
  7  8  1  0  0  0
  8  9  1  0  0  0
  8 18  2  0  0  0
  9 10  2  0  0  0
 10 11  1  0  0  0
 11 12  1  0  0  0
 11 17  2  0  0  0
 12 13  2  0  0  0
 13 14  1  0  0  0
 13 15  1  0  0  0
 14 19  1  0  0  0
 14 20  1  0  0  0
 15 16  2  0  0  0
 16 17  1  0  0  0
 17 18  1  0  0  0
M  END
> <minimizedAffinity>
-9.51877

$$$$
