CHEMBL410504


 31 34  0  0  0  0  0  0  0  0999 V2000
  -13.5447   -3.4719  -10.9148 C   0  0  0  0  0  0  0  0  0  0  0  0
  -14.9347   -3.3973  -10.8129 C   0  0  0  0  0  0  0  0  0  0  0  0
  -15.7111   -2.7705  -11.7889 C   0  0  0  0  0  0  0  0  0  0  0  0
  -15.1383   -2.2729  -12.9591 C   0  0  0  0  0  0  0  0  0  0  0  0
  -13.7610   -2.4235  -13.1310 C   0  0  0  0  0  0  0  0  0  0  0  0
  -12.9762   -3.0012  -12.1154 C   0  0  0  0  0  0  0  0  0  0  0  0
  -12.4050   -6.4403  -12.1414 N   0  0  0  0  0  0  0  0  0  0  0  0
  -11.8695   -6.3622  -10.9107 C   0  0  0  0  0  0  0  0  0  0  0  0
  -11.0525   -7.3137  -10.4463 N   0  0  0  0  0  0  0  0  0  0  0  0
  -10.7015   -6.9267   -9.1758 O   0  0  0  0  0  0  0  0  0  0  0  0
  -11.2883   -5.7412   -8.8805 C   0  0  0  0  0  0  0  0  0  0  0  0
  -11.1314   -5.0712   -7.6705 C   0  0  0  0  0  0  0  0  0  0  0  0
  -11.7941   -3.8555   -7.5488 C   0  0  0  0  0  0  0  0  0  0  0  0
  -12.5683   -3.3561   -8.5990 C   0  0  0  0  0  0  0  0  0  0  0  0
  -12.7314   -4.0498   -9.8295 C   0  0  0  0  0  0  0  0  0  0  0  0
  -12.0531   -5.3033   -9.9553 C   0  0  0  0  0  0  0  0  0  0  0  0
  -12.2555   -7.2943  -12.6671 H   0  0  0  0  0  0  0  0  0  0  0  0
  -13.2589   -5.9529  -12.3853 H   0  0  0  0  0  0  0  0  0  0  0  0
  -15.9023   -1.6569  -13.9795 N   0  0  0  0  0  0  0  0  0  0  0  0
  -16.4116   -0.3709  -13.9207 C   0  0  0  0  0  0  0  0  0  0  0  0
  -16.1236    0.4574  -13.0637 O   0  0  0  0  0  0  0  0  0  0  0  0
  -17.3305   -0.1283  -14.9310 N   0  0  0  0  0  0  0  0  0  0  0  0
  -15.9419   -2.1181  -14.8740 H   0  0  0  0  0  0  0  0  0  0  0  0
  -17.8959   -0.9311  -15.1800 H   0  0  0  0  0  0  0  0  0  0  0  0
  -18.0142    1.1149  -14.9748 C   0  0  0  0  0  0  0  0  0  0  0  0
  -19.2926    1.2798  -14.4213 C   0  0  0  0  0  0  0  0  0  0  0  0
  -19.9752    2.4857  -14.5816 C   0  0  0  0  0  0  0  0  0  0  0  0
  -19.3884    3.5350  -15.2903 C   0  0  0  0  0  0  0  0  0  0  0  0
  -18.1025    3.3882  -15.8141 C   0  0  0  0  0  0  0  0  0  0  0  0
  -17.4192    2.1889  -15.6306 C   0  0  0  0  0  0  0  0  0  0  0  0
  -16.1969    2.0453  -16.1726 F   0  0  0  0  0  0  0  0  0  0  0  0
  7  8  1  0  0  0
  7 17  1  0  0  0
  7 18  1  0  0  0
  8  9  2  0  0  0
  8 16  1  0  0  0
  9 10  1  0  0  0
 10 11  1  0  0  0
 11 12  1  0  0  0
 11 16  2  0  0  0
 12 13  2  0  0  0
 13 14  1  0  0  0
 14 15  2  0  0  0
 15  1  1  0  0  0
 15 16  1  0  0  0
  1  2  1  0  0  0
  1  6  2  0  0  0
  2  3  2  0  0  0
  3  4  1  0  0  0
  4 19  1  0  0  0
  4  5  2  0  0  0
 19 20  1  0  0  0
 19 23  1  0  0  0
 20 21  2  0  0  0
 20 22  1  0  0  0
 22 25  1  0  0  0
 22 24  1  0  0  0
 25 26  1  0  0  0
 25 30  2  0  0  0
 26 27  2  0  0  0
 27 28  1  0  0  0
 28 29  2  0  0  0
 29 30  1  0  0  0
 30 31  1  0  0  0
  5  6  1  0  0  0
M  END
> <minimizedAffinity>
-8.86108

$$$$
