CHEMBL3656037


 35 38  0  0  0  0  0  0  0  0999 V2000
  -26.6632   -1.8369  -11.2519 C   0  0  0  0  0  0  0  0  0  0  0  0
  -25.3167   -1.5554  -11.4292 C   0  0  0  0  0  0  0  0  0  0  0  0
  -24.8104   -1.5015  -12.7197 C   0  0  0  0  0  0  0  0  0  0  0  0
  -25.6884   -1.5870  -13.7926 C   0  0  0  0  0  0  0  0  0  0  0  0
  -27.0291   -1.8158  -13.5223 C   0  0  0  0  0  0  0  0  0  0  0  0
  -27.5366   -1.9716  -12.2770 N   0  0  0  0  0  0  0  0  0  0  0  0
  -28.0028   -1.9388   -7.7790 C   0  0  0  0  0  0  0  0  0  0  0  0
  -27.7504   -3.2726   -8.0797 C   0  0  0  0  0  0  0  0  0  0  0  0
  -27.2804   -3.3481   -9.3691 N   0  0  0  0  0  0  0  0  0  0  0  0
  -27.1998   -2.0922   -9.9213 C   0  0  0  0  0  0  0  0  0  0  0  0
  -27.6671   -1.2149   -8.9580 C   0  0  0  0  0  0  0  0  0  0  0  0
  -27.0038   -4.1899   -9.8592 H   0  0  0  0  0  0  0  0  0  0  0  0
  -28.3085    0.0343   -6.4481 N   0  0  0  0  0  0  0  0  0  0  0  0
  -28.4959   -1.3240   -6.5538 C   0  0  0  0  0  0  0  0  0  0  0  0
  -29.0558   -1.9841   -5.6826 O   0  0  0  0  0  0  0  0  0  0  0  0
  -27.9239    0.5364   -7.2385 H   0  0  0  0  0  0  0  0  0  0  0  0
  -30.2483    1.1839   -5.4941 C   0  0  0  0  0  0  0  0  0  0  0  0
  -28.7965    0.7815   -5.3132 C   0  0  0  0  0  0  0  0  0  0  0  0
  -23.4795   -1.3213  -13.0169 O   0  0  0  0  0  0  0  0  0  0  0  0
  -23.0068   -0.0762  -13.3777 C   0  0  0  0  0  0  0  0  0  0  0  0
  -23.6594    1.1369  -13.1368 C   0  0  0  0  0  0  0  0  0  0  0  0
  -23.1019    2.3413  -13.5810 C   0  0  0  0  0  0  0  0  0  0  0  0
  -21.8456    2.3535  -14.1911 C   0  0  0  0  0  0  0  0  0  0  0  0
  -21.1505    1.1515  -14.3526 C   0  0  0  0  0  0  0  0  0  0  0  0
  -21.7448   -0.0607  -13.9696 C   0  0  0  0  0  0  0  0  0  0  0  0
  -19.7975    1.0884  -14.9619 C   0  0  0  0  0  0  0  0  0  0  0  0
  -19.5140    0.0619  -15.5697 O   0  0  0  0  0  0  0  0  0  0  0  0
  -18.9659    2.1659  -14.6999 N   0  0  0  0  0  0  0  0  0  0  0  0
  -19.2442    2.8737  -14.0359 H   0  0  0  0  0  0  0  0  0  0  0  0
  -17.6707    2.1981  -15.1681 C   0  0  0  0  0  0  0  0  0  0  0  0
  -17.3785    3.0198  -16.2107 O   0  0  0  0  0  0  0  0  0  0  0  0
  -16.0648    2.8832  -16.4938 C   0  0  0  0  0  0  0  0  0  0  0  0
  -15.4873    1.9871  -15.6307 C   0  0  0  0  0  0  0  0  0  0  0  0
  -16.5262    1.5277  -14.7641 C   0  0  0  0  0  0  0  0  0  0  0  0
  -16.3746    0.5048  -13.7020 C   0  0  0  0  0  0  0  0  0  0  0  0
 17 18  1  0  0  0
 18 13  1  0  0  0
 13 14  1  0  0  0
 13 16  1  0  0  0
 14 15  2  0  0  0
 14  7  1  0  0  0
  7  8  2  0  0  0
  7 11  1  0  0  0
  8  9  1  0  0  0
  9 10  1  0  0  0
  9 12  1  0  0  0
 10  1  1  0  0  0
 10 11  2  0  0  0
  1  2  1  0  0  0
  1  6  2  0  0  0
  2  3  2  0  0  0
  3 19  1  0  0  0
  3  4  1  0  0  0
 19 20  1  0  0  0
 20 21  1  0  0  0
 20 25  2  0  0  0
 21 22  2  0  0  0
 22 23  1  0  0  0
 23 24  2  0  0  0
 24 26  1  0  0  0
 24 25  1  0  0  0
 26 27  2  0  0  0
 26 28  1  0  0  0
 28 30  1  0  0  0
 28 29  1  0  0  0
 30 31  1  0  0  0
 30 34  2  0  0  0
 31 32  1  0  0  0
 32 33  2  0  0  0
 33 34  1  0  0  0
 34 35  1  0  0  0
  4  5  2  0  0  0
  5  6  1  0  0  0
M  END
> <minimizedAffinity>
-10.45700

$$$$
