CHEMBL3908005


 36 40  0  0  0  0  0  0  0  0999 V2000
  -25.8505   -1.8442  -12.0563 C   0  0  0  0  0  0  0  0  0  0  0  0
  -25.8963   -1.5911  -13.4305 C   0  0  0  0  0  0  0  0  0  0  0  0
  -24.7597   -1.1847  -14.1361 C   0  0  0  0  0  0  0  0  0  0  0  0
  -23.5321   -1.0744  -13.4866 C   0  0  0  0  0  0  0  0  0  0  0  0
  -23.4881   -1.2894  -12.1097 C   0  0  0  0  0  0  0  0  0  0  0  0
  -22.3349   -1.1365  -11.4420 F   0  0  0  0  0  0  0  0  0  0  0  0
  -24.6302   -1.6717  -11.3938 C   0  0  0  0  0  0  0  0  0  0  0  0
  -26.3316   -1.5111   -9.2069 O   0  0  0  0  0  0  0  0  0  0  0  0
  -27.1368   -2.0916   -9.9262 C   0  0  0  0  0  0  0  0  0  0  0  0
  -28.2981   -2.6928   -9.4635 N   0  0  0  0  0  0  0  0  0  0  0  0
  -26.9805   -2.2461  -11.2974 N   0  0  0  0  0  0  0  0  0  0  0  0
  -28.7943   -3.2934  -10.1026 H   0  0  0  0  0  0  0  0  0  0  0  0
  -27.7641   -2.6198  -11.8094 H   0  0  0  0  0  0  0  0  0  0  0  0
  -28.7199   -2.7334   -8.1093 C   0  0  0  0  0  0  0  0  0  0  0  0
  -29.2884   -3.8623   -7.5151 C   0  0  0  0  0  0  0  0  0  0  0  0
  -29.7287   -3.8280   -6.1938 C   0  0  0  0  0  0  0  0  0  0  0  0
  -29.5893   -2.6636   -5.4468 C   0  0  0  0  0  0  0  0  0  0  0  0
  -29.0010   -1.5125   -5.9936 C   0  0  0  0  0  0  0  0  0  0  0  0
  -28.5617   -1.5752   -7.3320 C   0  0  0  0  0  0  0  0  0  0  0  0
  -28.8225   -0.2790   -5.1417 C   0  0  0  0  0  0  0  0  0  0  0  0
  -29.7895    0.8732   -5.3089 C   0  0  0  0  0  0  0  0  0  0  0  0
  -28.3603    1.0319   -5.7289 C   0  0  0  0  0  0  0  0  0  0  0  0
  -22.3658   -0.7199  -14.1340 O   0  0  0  0  0  0  0  0  0  0  0  0
  -22.0323    0.6188  -14.2299 C   0  0  0  0  0  0  0  0  0  0  0  0
  -22.8626    1.6456  -13.7931 C   0  0  0  0  0  0  0  0  0  0  0  0
  -22.4022    2.9361  -13.9038 C   0  0  0  0  0  0  0  0  0  0  0  0
  -21.2152    3.2502  -14.4570 N   0  0  0  0  0  0  0  0  0  0  0  0
  -20.4394    2.2677  -14.9426 C   0  0  0  0  0  0  0  0  0  0  0  0
  -20.8125    0.9296  -14.8450 C   0  0  0  0  0  0  0  0  0  0  0  0
  -19.2219    2.5973  -15.5656 N   0  0  0  0  0  0  0  0  0  0  0  0
  -17.9834    2.3004  -15.0289 C   0  0  0  0  0  0  0  0  0  0  0  0
  -17.7471    1.7188  -13.9794 O   0  0  0  0  0  0  0  0  0  0  0  0
  -19.2650    3.1043  -16.4322 H   0  0  0  0  0  0  0  0  0  0  0  0
  -16.7888    2.7507  -15.8078 C   0  0  0  0  0  0  0  0  0  0  0  0
  -15.9189    1.7194  -16.4893 C   0  0  0  0  0  0  0  0  0  0  0  0
  -15.3415    2.6066  -15.4234 C   0  0  0  0  0  0  0  0  0  0  0  0
  8  9  2  0  0  0
  9 10  1  0  0  0
  9 11  1  0  0  0
 10 14  1  0  0  0
 10 12  1  0  0  0
 14 15  1  0  0  0
 14 19  2  0  0  0
 15 16  2  0  0  0
 16 17  1  0  0  0
 17 18  2  0  0  0
 18 20  1  0  0  0
 18 19  1  0  0  0
 20 21  1  0  0  0
 20 22  1  0  0  0
 21 22  1  0  0  0
 11  1  1  0  0  0
 11 13  1  0  0  0
  1  2  1  0  0  0
  1  7  2  0  0  0
  2  3  2  0  0  0
  3  4  1  0  0  0
  4 23  1  0  0  0
  4  5  2  0  0  0
 23 24  1  0  0  0
 24 25  1  0  0  0
 24 29  2  0  0  0
 25 26  2  0  0  0
 26 27  1  0  0  0
 27 28  2  0  0  0
 28 30  1  0  0  0
 28 29  1  0  0  0
 30 31  1  0  0  0
 30 33  1  0  0  0
 31 32  2  0  0  0
 31 34  1  0  0  0
 34 35  1  0  0  0
 34 36  1  0  0  0
 35 36  1  0  0  0
  5  6  1  0  0  0
  5  7  1  0  0  0
M  END
> <minimizedAffinity>
-11.66575

$$$$
