CHEMBL2022379


 41 46  0  0  0  0  0  0  0  0999 V2000
  -27.8514   -1.5327  -14.6837 C   0  0  0  0  0  0  0  0  0  0  0  0
  -26.8658   -1.5849  -13.5550 C   0  0  0  0  0  0  0  0  0  0  0  0
  -25.6392   -1.0656  -13.7116 C   0  0  0  0  0  0  0  0  0  0  0  0
  -24.7247   -1.1782  -12.6846 N   0  0  0  0  0  0  0  0  0  0  0  0
  -23.4349   -0.7359  -12.5335 C   0  0  0  0  0  0  0  0  0  0  0  0
  -23.0311   -1.2671  -11.3172 C   0  0  0  0  0  0  0  0  0  0  0  0
  -24.0537   -1.9702  -10.7045 N   0  0  0  0  0  0  0  0  0  0  0  0
  -25.0630   -1.8699  -11.5467 C   0  0  0  0  0  0  0  0  0  0  0  0
  -26.4321   -2.3611  -11.3941 C   0  0  0  0  0  0  0  0  0  0  0  0
  -27.2846   -2.1855  -12.3853 N   0  0  0  0  0  0  0  0  0  0  0  0
  -22.6428    0.1151  -13.4656 C   0  0  0  0  0  0  0  0  0  0  0  0
  -21.8154   -0.2476  -14.5514 C   0  0  0  0  0  0  0  0  0  0  0  0
  -21.2127    0.7998  -15.1163 N   0  0  0  0  0  0  0  0  0  0  0  0
  -21.6864    1.8437  -14.4180 N   0  0  0  0  0  0  0  0  0  0  0  0
  -22.5881    1.4890  -13.4507 C   0  0  0  0  0  0  0  0  0  0  0  0
  -21.1875    3.1654  -14.7157 C   0  0  0  0  0  0  0  0  0  0  0  0
  -19.6871    3.1912  -14.6160 C   0  0  0  0  0  0  0  0  0  0  0  0
  -19.1418    3.6182  -13.5984 O   0  0  0  0  0  0  0  0  0  0  0  0
  -19.0159    2.7341  -15.7453 N   0  0  0  0  0  0  0  0  0  0  0  0
  -19.5270    2.7261  -16.6221 H   0  0  0  0  0  0  0  0  0  0  0  0
  -17.6088    2.7822  -15.8122 C   0  0  0  0  0  0  0  0  0  0  0  0
  -16.9376    3.9653  -16.1144 C   0  0  0  0  0  0  0  0  0  0  0  0
  -15.5692    3.9108  -16.2974 C   0  0  0  0  0  0  0  0  0  0  0  0
  -14.8501    2.7733  -16.2050 N   0  0  0  0  0  0  0  0  0  0  0  0
  -15.5271    1.6491  -15.8842 C   0  0  0  0  0  0  0  0  0  0  0  0
  -16.8888    1.6074  -15.6382 C   0  0  0  0  0  0  0  0  0  0  0  0
  -26.8516   -3.0096  -10.2476 N   0  0  0  0  0  0  0  0  0  0  0  0
  -26.6333   -4.0010  -10.2261 H   0  0  0  0  0  0  0  0  0  0  0  0
  -27.3539   -2.4412   -9.1179 C   0  0  0  0  0  0  0  0  0  0  0  0
  -28.0655   -3.0175   -8.0767 C   0  0  0  0  0  0  0  0  0  0  0  0
  -28.5835   -2.0233   -7.1747 C   0  0  0  0  0  0  0  0  0  0  0  0
  -28.1840   -0.7723   -7.4267 N   0  0  0  0  0  0  0  0  0  0  0  0
  -27.2704   -0.7573   -8.8052 S   0  0  0  0  0  0  0  0  0  0  0  0
  -29.6333   -2.2398   -6.1027 C   0  0  0  0  0  0  0  0  0  0  0  0
  -29.1197   -2.5965   -4.7636 N   0  0  0  0  0  0  0  0  0  0  0  0
  -28.1290   -3.6896   -4.8621 C   0  0  0  0  0  0  0  0  0  0  0  0
  -28.7164   -5.0742   -5.1754 C   0  0  0  0  0  0  0  0  0  0  0  0
  -29.8955   -5.4398   -4.2767 C   0  0  0  0  0  0  0  0  0  0  0  0
  -30.8893   -4.2821   -4.1270 C   0  0  0  0  0  0  0  0  0  0  0  0
  -31.9262   -4.6030   -3.0502 C   0  0  0  0  0  0  0  0  0  0  0  0
  -30.1544   -2.9751   -3.7895 C   0  0  0  0  0  0  0  0  0  0  0  0
  1  2  1  0  0  0
  2  3  2  0  0  0
  2 10  1  0  0  0
  3  4  1  0  0  0
  4  5  1  0  0  0
  4  8  1  0  0  0
  5 11  1  0  0  0
  5  6  2  0  0  0
 11 12  1  0  0  0
 11 15  2  0  0  0
 12 13  2  0  0  0
 13 14  1  0  0  0
 14 16  1  0  0  0
 14 15  1  0  0  0
 16 17  1  0  0  0
 17 18  2  0  0  0
 17 19  1  0  0  0
 19 21  1  0  0  0
 19 20  1  0  0  0
 21 22  1  0  0  0
 21 26  2  0  0  0
 22 23  2  0  0  0
 23 24  1  0  0  0
 24 25  2  0  0  0
 25 26  1  0  0  0
  6  7  1  0  0  0
  7  8  2  0  0  0
  8  9  1  0  0  0
  9 27  1  0  0  0
  9 10  2  0  0  0
 27 29  1  0  0  0
 27 28  1  0  0  0
 29 30  2  0  0  0
 29 33  1  0  0  0
 30 31  1  0  0  0
 31 34  1  0  0  0
 31 32  2  0  0  0
 34 35  1  0  0  0
 35 36  1  0  0  0
 35 41  1  0  0  0
 36 37  1  0  0  0
 37 38  1  0  0  0
 38 39  1  0  0  0
 39 40  1  0  0  0
 39 41  1  0  0  0
 32 33  1  0  0  0
M  END
> <minimizedAffinity>
-8.59100

$$$$
