CHEMBL75196


 27 30  0  0  0  0  0  0  0  0999 V2000
  -29.5697   -5.6584   -6.7117 C   0  0  0  0  0  0  0  0  0  0  0  0
  -28.6234   -4.8451   -7.2280 N   0  0  0  0  0  0  0  0  0  0  0  0
  -28.2549   -3.6990   -6.5979 N   0  0  0  0  0  0  0  0  0  0  0  0
  -28.8826   -3.3117   -5.4683 C   0  0  0  0  0  0  0  0  0  0  0  0
  -29.9158   -4.0815   -4.8976 C   0  0  0  0  0  0  0  0  0  0  0  0
  -30.6439   -3.6881   -3.7463 C   0  0  0  0  0  0  0  0  0  0  0  0
  -31.6106   -4.5120   -3.1684 C   0  0  0  0  0  0  0  0  0  0  0  0
  -31.8646   -5.7568   -3.7155 C   0  0  0  0  0  0  0  0  0  0  0  0
  -31.2003   -6.1478   -4.8777 C   0  0  0  0  0  0  0  0  0  0  0  0
  -30.2401   -5.3157   -5.5147 C   0  0  0  0  0  0  0  0  0  0  0  0
  -29.9759   -6.7961   -7.4750 N   0  0  0  0  0  0  0  0  0  0  0  0
  -30.9057   -7.0864   -7.1955 H   0  0  0  0  0  0  0  0  0  0  0  0
  -26.8745  -11.8375   -8.0756 Cl  0  0  0  0  0  0  0  0  0  0  0  0
  -27.7841  -10.3753   -7.9434 C   0  0  0  0  0  0  0  0  0  0  0  0
  -27.7906   -9.7252   -6.7088 C   0  0  0  0  0  0  0  0  0  0  0  0
  -28.4980   -8.5321   -6.5513 C   0  0  0  0  0  0  0  0  0  0  0  0
  -29.1849   -7.9621   -7.6287 C   0  0  0  0  0  0  0  0  0  0  0  0
  -29.2199   -8.6454   -8.8474 C   0  0  0  0  0  0  0  0  0  0  0  0
  -28.5069   -9.8379   -9.0140 C   0  0  0  0  0  0  0  0  0  0  0  0
  -28.5672  -10.6007  -10.5639 Cl  0  0  0  0  0  0  0  0  0  0  0  0
  -28.2983   -2.0714   -4.8302 C   0  0  0  0  0  0  0  0  0  0  0  0
  -28.7922   -0.7847   -5.4511 C   0  0  0  0  0  0  0  0  0  0  0  0
  -27.9802   -0.0604   -6.3345 C   0  0  0  0  0  0  0  0  0  0  0  0
  -28.4546    1.1317   -6.8555 C   0  0  0  0  0  0  0  0  0  0  0  0
  -29.6710    1.6428   -6.5725 N   0  0  0  0  0  0  0  0  0  0  0  0
  -30.4483    0.9223   -5.7364 C   0  0  0  0  0  0  0  0  0  0  0  0
  -30.0623   -0.2801   -5.1613 C   0  0  0  0  0  0  0  0  0  0  0  0
 13 14  1  0  0  0
 14 15  1  0  0  0
 14 19  2  0  0  0
 15 16  2  0  0  0
 16 17  1  0  0  0
 17 11  1  0  0  0
 17 18  2  0  0  0
 11  1  1  0  0  0
 11 12  1  0  0  0
  1  2  1  0  0  0
  1 10  2  0  0  0
  2  3  2  0  0  0
  3  4  1  0  0  0
  4 21  1  0  0  0
  4  5  2  0  0  0
 21 22  1  0  0  0
 22 23  1  0  0  0
 22 27  2  0  0  0
 23 24  2  0  0  0
 24 25  1  0  0  0
 25 26  2  0  0  0
 26 27  1  0  0  0
  5  6  1  0  0  0
  5 10  1  0  0  0
  6  7  2  0  0  0
  7  8  1  0  0  0
  8  9  2  0  0  0
  9 10  1  0  0  0
 18 19  1  0  0  0
 19 20  1  0  0  0
M  END
> <minimizedAffinity>
-8.37887

$$$$
