CHEMBL4173144


 30 34  0  0  0  0  0  0  0  0999 V2000
  -30.1637   -5.0304   -6.0516 C   0  0  0  0  0  0  0  0  0  0  0  0
  -30.2185   -3.9975   -5.1097 C   0  0  0  0  0  0  0  0  0  0  0  0
  -29.5565   -2.7774   -5.3201 C   0  0  0  0  0  0  0  0  0  0  0  0
  -28.8468   -2.6430   -6.5205 C   0  0  0  0  0  0  0  0  0  0  0  0
  -28.7398   -3.6772   -7.4382 C   0  0  0  0  0  0  0  0  0  0  0  0
  -29.3722   -4.8996   -7.1972 C   0  0  0  0  0  0  0  0  0  0  0  0
  -27.9859   -3.3083   -8.5098 N   0  0  0  0  0  0  0  0  0  0  0  0
  -27.6286   -2.0595   -8.3088 C   0  0  0  0  0  0  0  0  0  0  0  0
  -28.1420   -1.6095   -7.1058 N   0  0  0  0  0  0  0  0  0  0  0  0
  -28.0429   -0.2841   -6.5468 C   0  0  0  0  0  0  0  0  0  0  0  0
  -26.8475   -1.2926   -9.1107 N   0  0  0  0  0  0  0  0  0  0  0  0
  -26.1479   -0.6809   -8.7137 H   0  0  0  0  0  0  0  0  0  0  0  0
  -26.6914   -1.4976  -10.5029 C   0  0  0  0  0  0  0  0  0  0  0  0
  -25.4356   -1.4953  -11.1341 C   0  0  0  0  0  0  0  0  0  0  0  0
  -25.3188   -1.5892  -12.5232 C   0  0  0  0  0  0  0  0  0  0  0  0
  -26.4657   -1.6841  -13.2958 C   0  0  0  0  0  0  0  0  0  0  0  0
  -26.3617   -1.7476  -14.6297 F   0  0  0  0  0  0  0  0  0  0  0  0
  -27.7217   -1.7047  -12.7030 C   0  0  0  0  0  0  0  0  0  0  0  0
  -27.8340   -1.6146  -11.3113 C   0  0  0  0  0  0  0  0  0  0  0  0
  -30.8713   -6.1775   -5.7580 O   0  0  0  0  0  0  0  0  0  0  0  0
  -31.3425  -11.5133   -8.4682 C   0  0  0  0  0  0  0  0  0  0  0  0
  -31.4902  -10.1822   -7.9352 N   0  0  0  0  0  0  0  0  0  0  0  0
  -32.6607   -9.5136   -8.0714 N   0  0  0  0  0  0  0  0  0  0  0  0
  -32.4251   -8.3548   -7.4424 C   0  0  0  0  0  0  0  0  0  0  0  0
  -31.1214   -8.2750   -6.9188 C   0  0  0  0  0  0  0  0  0  0  0  0
  -30.3427   -7.3869   -6.1903 C   0  0  0  0  0  0  0  0  0  0  0  0
  -29.0532   -7.7096   -5.9122 N   0  0  0  0  0  0  0  0  0  0  0  0
  -28.6101   -8.9225   -6.2896 C   0  0  0  0  0  0  0  0  0  0  0  0
  -29.2817   -9.8748   -6.9623 N   0  0  0  0  0  0  0  0  0  0  0  0
  -30.5328   -9.4799   -7.2567 C   0  0  0  0  0  0  0  0  0  0  0  0
 21 22  1  0  0  0
 22 23  1  0  0  0
 22 30  1  0  0  0
 23 24  2  0  0  0
 24 25  1  0  0  0
 25 26  1  0  0  0
 25 30  2  0  0  0
 26 20  1  0  0  0
 26 27  2  0  0  0
 20  1  1  0  0  0
  1  2  1  0  0  0
  1  6  2  0  0  0
  2  3  2  0  0  0
  3  4  1  0  0  0
  4  5  2  0  0  0
  4  9  1  0  0  0
  5  6  1  0  0  0
  5  7  1  0  0  0
  7  8  2  0  0  0
  8 11  1  0  0  0
  8  9  1  0  0  0
 11 13  1  0  0  0
 11 12  1  0  0  0
 13 14  1  0  0  0
 13 19  2  0  0  0
 14 15  2  0  0  0
 15 16  1  0  0  0
 16 17  1  0  0  0
 16 18  2  0  0  0
 18 19  1  0  0  0
  9 10  1  0  0  0
 27 28  1  0  0  0
 28 29  2  0  0  0
 29 30  1  0  0  0
M  END
> <minimizedAffinity>
-9.52452

$$$$
