CHEMBL4471270


 37 40  0  0  0  0  0  0  0  0999 V2000
  -28.6930   -3.4200   -6.7468 C   0  0  0  0  0  0  0  0  0  0  0  0
  -29.2283   -4.6666   -7.1087 C   0  0  0  0  0  0  0  0  0  0  0  0
  -29.4897   -5.6388   -6.1436 C   0  0  0  0  0  0  0  0  0  0  0  0
  -29.2388   -5.3560   -4.8076 C   0  0  0  0  0  0  0  0  0  0  0  0
  -28.6305   -4.1426   -4.4428 C   0  0  0  0  0  0  0  0  0  0  0  0
  -28.3333   -3.1840   -5.4197 C   0  0  0  0  0  0  0  0  0  0  0  0
  -27.7915   -1.4593   -9.6716 N   0  0  0  0  0  0  0  0  0  0  0  0
  -27.7937   -2.5644   -8.8272 C   0  0  0  0  0  0  0  0  0  0  0  0
  -27.1850   -3.6063   -9.0601 O   0  0  0  0  0  0  0  0  0  0  0  0
  -28.5786   -2.3738   -7.7025 N   0  0  0  0  0  0  0  0  0  0  0  0
  -27.8891   -0.5699   -9.2193 H   0  0  0  0  0  0  0  0  0  0  0  0
  -29.4071   -1.8166   -7.8587 H   0  0  0  0  0  0  0  0  0  0  0  0
  -25.2702   -1.1256  -12.3772 C   0  0  0  0  0  0  0  0  0  0  0  0
  -25.9813   -1.6176  -13.4766 C   0  0  0  0  0  0  0  0  0  0  0  0
  -27.3093   -2.0037  -13.3394 C   0  0  0  0  0  0  0  0  0  0  0  0
  -27.9265   -1.9251  -12.0893 C   0  0  0  0  0  0  0  0  0  0  0  0
  -27.2210   -1.4832  -10.9636 C   0  0  0  0  0  0  0  0  0  0  0  0
  -25.8924   -1.0406  -11.1316 C   0  0  0  0  0  0  0  0  0  0  0  0
  -23.0287   -1.5447  -11.7119 C   0  0  0  0  0  0  0  0  0  0  0  0
  -23.9625   -0.7191  -12.4049 O   0  0  0  0  0  0  0  0  0  0  0  0
  -29.6105   -6.3537   -3.7789 C   0  0  0  0  0  0  0  0  0  0  0  0
  -30.7504   -6.3681   -3.3242 O   0  0  0  0  0  0  0  0  0  0  0  0
  -28.5868   -7.2237   -3.4423 N   0  0  0  0  0  0  0  0  0  0  0  0
  -27.6482   -7.0255   -3.7929 H   0  0  0  0  0  0  0  0  0  0  0  0
  -28.9155   -8.5366   -3.2562 N   0  0  0  0  0  0  0  0  0  0  0  0
  -28.0981   -9.4099   -3.7500 C   0  0  0  0  0  0  0  0  0  0  0  0
  -26.6941   -9.2163   -4.3299 C   0  0  0  0  0  0  0  0  0  0  0  0
  -25.9606   -8.2771   -4.1103 O   0  0  0  0  0  0  0  0  0  0  0  0
  -26.5278  -10.2586   -5.2138 N   0  0  0  0  0  0  0  0  0  0  0  0
  -27.7204  -10.9681   -5.3276 C   0  0  0  0  0  0  0  0  0  0  0  0
  -28.1911  -11.6246   -6.4439 C   0  0  0  0  0  0  0  0  0  0  0  0
  -29.5325  -12.0393   -6.4226 C   0  0  0  0  0  0  0  0  0  0  0  0
  -30.3268  -11.8856   -5.2656 C   0  0  0  0  0  0  0  0  0  0  0  0
  -32.1258  -12.4658   -5.2814 Br  0  0  0  0  0  0  0  0  0  0  0  0
  -29.8492  -11.2036   -4.1531 C   0  0  0  0  0  0  0  0  0  0  0  0
  -28.5730  -10.6918   -4.2606 C   0  0  0  0  0  0  0  0  0  0  0  0
  -25.6813  -10.4120   -5.7429 H   0  0  0  0  0  0  0  0  0  0  0  0
 19 20  1  0  0  0
 20 13  1  0  0  0
 13 14  1  0  0  0
 13 18  2  0  0  0
 14 15  2  0  0  0
 15 16  1  0  0  0
 16 17  2  0  0  0
 17  7  1  0  0  0
 17 18  1  0  0  0
  7  8  1  0  0  0
  7 11  1  0  0  0
  8  9  2  0  0  0
  8 10  1  0  0  0
 10  1  1  0  0  0
 10 12  1  0  0  0
  1  2  1  0  0  0
  1  6  2  0  0  0
  2  3  2  0  0  0
  3  4  1  0  0  0
  4 21  1  0  0  0
  4  5  2  0  0  0
 21 22  2  0  0  0
 21 23  1  0  0  0
 23 25  1  0  0  0
 23 24  1  0  0  0
 25 26  2  0  0  0
 26 27  1  0  0  0
 26 36  1  0  0  0
 27 28  2  0  0  0
 27 29  1  0  0  0
 29 30  1  0  0  0
 29 37  1  0  0  0
 30 31  1  0  0  0
 30 36  2  0  0  0
 31 32  2  0  0  0
 32 33  1  0  0  0
 33 34  1  0  0  0
 33 35  2  0  0  0
 35 36  1  0  0  0
  5  6  1  0  0  0
M  END
> <minimizedAffinity>
-9.04479

$$$$
