CHEMBL462315


 28 31  0  0  0  0  0  0  0  0999 V2000
  -30.8161   -5.9823   -3.9228 O   0  0  0  0  0  0  0  0  0  0  0  0
  -29.6084   -6.2063   -3.8543 C   0  0  0  0  0  0  0  0  0  0  0  0
  -28.7006   -5.2283   -3.5174 N   0  0  0  0  0  0  0  0  0  0  0  0
  -27.7158   -5.4838   -3.5243 H   0  0  0  0  0  0  0  0  0  0  0  0
  -29.0390   -7.5391   -4.1251 C   0  0  0  0  0  0  0  0  0  0  0  0
  -29.0472   -8.4765   -3.1641 N   0  0  0  0  0  0  0  0  0  0  0  0
  -28.3803   -9.8705   -3.7621 S   0  0  0  0  0  0  0  0  0  0  0  0
  -28.0298   -9.2596   -5.3166 C   0  0  0  0  0  0  0  0  0  0  0  0
  -28.4339   -7.9441   -5.3823 C   0  0  0  0  0  0  0  0  0  0  0  0
  -28.3210   -7.1488   -6.4843 N   0  0  0  0  0  0  0  0  0  0  0  0
  -27.4767   -7.2437   -7.0618 H   0  0  0  0  0  0  0  0  0  0  0  0
  -29.4614   -6.6218   -7.2169 C   0  0  0  0  0  0  0  0  0  0  0  0
  -30.4769   -7.7045   -7.5029 C   0  0  0  0  0  0  0  0  0  0  0  0
  -31.7745   -7.6361   -6.9834 C   0  0  0  0  0  0  0  0  0  0  0  0
  -32.6814   -8.6312   -7.3184 C   0  0  0  0  0  0  0  0  0  0  0  0
  -32.3909   -9.6731   -8.1257 N   0  0  0  0  0  0  0  0  0  0  0  0
  -31.1348   -9.7257   -8.6146 C   0  0  0  0  0  0  0  0  0  0  0  0
  -30.1583   -8.7799   -8.3385 C   0  0  0  0  0  0  0  0  0  0  0  0
  -29.1030   -3.8743   -3.2317 C   0  0  0  0  0  0  0  0  0  0  0  0
  -28.8383   -2.9422   -4.3881 C   0  0  0  0  0  0  0  0  0  0  0  0
  -29.0962   -1.5563   -4.2579 C   0  0  0  0  0  0  0  0  0  0  0  0
  -28.8415   -0.6696   -5.3097 C   0  0  0  0  0  0  0  0  0  0  0  0
  -28.3443   -1.1940   -6.4823 C   0  0  0  0  0  0  0  0  0  0  0  0
  -28.1024   -2.5396   -6.6248 C   0  0  0  0  0  0  0  0  0  0  0  0
  -28.3374   -3.4384   -5.6033 C   0  0  0  0  0  0  0  0  0  0  0  0
  -27.6176   -2.8508   -7.8577 O   0  0  0  0  0  0  0  0  0  0  0  0
  -27.6455   -1.5553   -8.4920 C   0  0  0  0  0  0  0  0  0  0  0  0
  -28.0418   -0.4896   -7.6046 O   0  0  0  0  0  0  0  0  0  0  0  0
  1  2  2  0  0  0
  2  3  1  0  0  0
  2  5  1  0  0  0
  3 19  1  0  0  0
  3  4  1  0  0  0
 19 20  1  0  0  0
 20 21  1  0  0  0
 20 25  2  0  0  0
 21 22  2  0  0  0
 22 23  1  0  0  0
 23 24  2  0  0  0
 23 28  1  0  0  0
 24 25  1  0  0  0
 24 26  1  0  0  0
 26 27  1  0  0  0
 27 28  1  0  0  0
  5  6  2  0  0  0
  5  9  1  0  0  0
  6  7  1  0  0  0
  7  8  1  0  0  0
  8  9  2  0  0  0
  9 10  1  0  0  0
 10 12  1  0  0  0
 10 11  1  0  0  0
 12 13  1  0  0  0
 13 14  1  0  0  0
 13 18  2  0  0  0
 14 15  2  0  0  0
 15 16  1  0  0  0
 16 17  2  0  0  0
 17 18  1  0  0  0
M  END
> <minimizedAffinity>
-8.38416

$$$$
