CHEMBL258014


 34 39  0  0  0  0  0  0  0  0999 V2000
  -27.3549  -11.5249   -8.7226 N   0  0  0  0  0  0  0  0  0  0  0  0
  -26.0423  -11.5218   -8.1878 C   0  0  0  0  0  0  0  0  0  0  0  0
  -24.7992  -11.9032   -8.7245 C   0  0  0  0  0  0  0  0  0  0  0  0
  -23.6549  -11.8662   -7.8837 C   0  0  0  0  0  0  0  0  0  0  0  0
  -23.7166  -11.4388   -6.5537 C   0  0  0  0  0  0  0  0  0  0  0  0
  -24.9665  -11.0493   -6.0514 C   0  0  0  0  0  0  0  0  0  0  0  0
  -26.1233  -11.1199   -6.8486 C   0  0  0  0  0  0  0  0  0  0  0  0
  -27.4805  -10.9895   -6.6565 C   0  0  0  0  0  0  0  0  0  0  0  0
  -28.0644  -11.0486   -5.3835 C   0  0  0  0  0  0  0  0  0  0  0  0
  -29.4098  -11.4636   -5.3611 C   0  0  0  0  0  0  0  0  0  0  0  0
  -30.2045  -11.6187   -6.5126 C   0  0  0  0  0  0  0  0  0  0  0  0
  -29.6704  -10.9270   -7.6546 C   0  0  0  0  0  0  0  0  0  0  0  0
  -28.2661  -11.0583   -7.7678 C   0  0  0  0  0  0  0  0  0  0  0  0
  -30.4177   -9.5379   -7.8848 C   0  0  0  0  0  0  0  0  0  0  0  0
  -31.4099   -9.1185   -6.7193 C   0  0  0  0  0  0  0  0  0  0  0  0
  -32.2688  -10.3024   -6.4505 C   0  0  0  0  0  0  0  0  0  0  0  0
  -33.5900  -10.3986   -6.5893 N   0  0  0  0  0  0  0  0  0  0  0  0
  -33.7788  -11.7411   -6.6654 N   0  0  0  0  0  0  0  0  0  0  0  0
  -35.0896  -12.2607   -6.9708 C   0  0  0  0  0  0  0  0  0  0  0  0
  -32.6093  -12.4638   -6.6660 C   0  0  0  0  0  0  0  0  0  0  0  0
  -31.6370  -11.5506   -6.3542 C   0  0  0  0  0  0  0  0  0  0  0  0
  -29.8070  -11.5296   -3.9747 C   0  0  0  0  0  0  0  0  0  0  0  0
  -30.8495  -11.8294   -3.4123 O   0  0  0  0  0  0  0  0  0  0  0  0
  -28.6926  -11.0845   -3.2722 N   0  0  0  0  0  0  0  0  0  0  0  0
  -27.5067  -10.8385   -4.0524 C   0  0  0  0  0  0  0  0  0  0  0  0
  -28.7457  -10.9837   -2.2704 H   0  0  0  0  0  0  0  0  0  0  0  0
  -22.5555  -11.4120   -5.5863 C   0  0  0  0  0  0  0  0  0  0  0  0
  -21.2171  -11.9831   -5.9972 C   0  0  0  0  0  0  0  0  0  0  0  0
  -22.7219  -10.8984   -4.3945 N   0  0  0  0  0  0  0  0  0  0  0  0
  -21.5430  -11.0063   -3.6168 O   0  0  0  0  0  0  0  0  0  0  0  0
  -21.8990  -11.3817   -2.2956 C   0  0  0  0  0  0  0  0  0  0  0  0
  -27.7024  -12.0729  -10.0303 C   0  0  0  0  0  0  0  0  0  0  0  0
  -27.6710   -9.9068  -11.4203 C   0  0  0  0  0  0  0  0  0  0  0  0
  -28.4662  -11.1231  -10.9701 C   0  0  0  0  0  0  0  0  0  0  0  0
 33 34  1  0  0  0
 34 32  1  0  0  0
 32  1  1  0  0  0
  1  2  1  0  0  0
  1 13  1  0  0  0
  2  3  1  0  0  0
  2  7  2  0  0  0
  3  4  2  0  0  0
  4  5  1  0  0  0
  5 27  1  0  0  0
  5  6  2  0  0  0
 27 28  1  0  0  0
 27 29  2  0  0  0
 29 30  1  0  0  0
 30 31  1  0  0  0
  6  7  1  0  0  0
  7  8  1  0  0  0
  8  9  1  0  0  0
  8 13  2  0  0  0
  9 10  2  0  0  0
  9 25  1  0  0  0
 10 11  1  0  0  0
 10 22  1  0  0  0
 11 12  2  0  0  0
 11 21  1  0  0  0
 12 13  1  0  0  0
 12 14  1  0  0  0
 14 15  1  0  0  0
 15 16  1  0  0  0
 16 17  2  0  0  0
 16 21  1  0  0  0
 17 18  1  0  0  0
 18 19  1  0  0  0
 18 20  1  0  0  0
 20 21  2  0  0  0
 22 23  2  0  0  0
 22 24  1  0  0  0
 24 25  1  0  0  0
 24 26  1  0  0  0
M  END
> <minimizedAffinity>
-6.21079

$$$$
