CHEMBL3926946


 39 42  0  0  0  0  0  0  0  0999 V2000
  -23.4900   -1.0180  -13.5856 C   0  0  0  0  0  0  0  0  0  0  0  0
  -24.7511   -1.1708  -14.1661 C   0  0  0  0  0  0  0  0  0  0  0  0
  -25.8339   -1.6022  -13.3996 C   0  0  0  0  0  0  0  0  0  0  0  0
  -25.7014   -1.8317  -12.0276 C   0  0  0  0  0  0  0  0  0  0  0  0
  -24.4801   -1.5362  -11.4150 C   0  0  0  0  0  0  0  0  0  0  0  0
  -23.3838   -1.1522  -12.1996 C   0  0  0  0  0  0  0  0  0  0  0  0
  -22.2069   -0.9355  -11.5927 F   0  0  0  0  0  0  0  0  0  0  0  0
  -26.7757   -2.3350  -11.2551 N   0  0  0  0  0  0  0  0  0  0  0  0
  -27.0029   -1.9605   -9.9352 C   0  0  0  0  0  0  0  0  0  0  0  0
  -26.4243   -1.0528   -9.3507 O   0  0  0  0  0  0  0  0  0  0  0  0
  -27.9531   -2.7720   -9.3270 N   0  0  0  0  0  0  0  0  0  0  0  0
  -27.5753   -2.7025  -11.7478 H   0  0  0  0  0  0  0  0  0  0  0  0
  -27.9385   -3.7265   -9.6600 H   0  0  0  0  0  0  0  0  0  0  0  0
  -28.3133   -2.5814   -7.9696 C   0  0  0  0  0  0  0  0  0  0  0  0
  -28.6018   -3.6996   -7.1959 C   0  0  0  0  0  0  0  0  0  0  0  0
  -28.8786   -3.5469   -5.8358 C   0  0  0  0  0  0  0  0  0  0  0  0
  -28.9241   -2.2730   -5.2483 C   0  0  0  0  0  0  0  0  0  0  0  0
  -29.2699   -2.2285   -3.5589 Cl  0  0  0  0  0  0  0  0  0  0  0  0
  -28.6870   -1.1322   -6.0218 C   0  0  0  0  0  0  0  0  0  0  0  0
  -28.3660   -1.3088   -7.3871 C   0  0  0  0  0  0  0  0  0  0  0  0
  -28.7517    0.2791   -5.4980 C   0  0  0  0  0  0  0  0  0  0  0  0
  -27.9760    0.5677   -4.4241 F   0  0  0  0  0  0  0  0  0  0  0  0
  -28.4095    1.1989   -6.4475 F   0  0  0  0  0  0  0  0  0  0  0  0
  -30.0213    0.6137   -5.1134 F   0  0  0  0  0  0  0  0  0  0  0  0
  -22.3567   -0.7341  -14.3183 O   0  0  0  0  0  0  0  0  0  0  0  0
  -20.2041    2.2324  -14.7406 C   0  0  0  0  0  0  0  0  0  0  0  0
  -20.5609    0.8916  -14.6730 C   0  0  0  0  0  0  0  0  0  0  0  0
  -21.8625    0.5580  -14.3065 C   0  0  0  0  0  0  0  0  0  0  0  0
  -22.7257    1.5684  -13.9065 C   0  0  0  0  0  0  0  0  0  0  0  0
  -22.2467    2.8708  -13.9099 C   0  0  0  0  0  0  0  0  0  0  0  0
  -20.9982    3.2251  -14.2985 N   0  0  0  0  0  0  0  0  0  0  0  0
  -17.7940    2.2711  -14.7884 C   0  0  0  0  0  0  0  0  0  0  0  0
  -17.6468    1.6591  -13.7376 O   0  0  0  0  0  0  0  0  0  0  0  0
  -19.0050    2.6172  -15.3566 N   0  0  0  0  0  0  0  0  0  0  0  0
  -19.0412    2.6647  -16.3641 H   0  0  0  0  0  0  0  0  0  0  0  0
  -16.5876    3.9650  -16.3021 C   0  0  0  0  0  0  0  0  0  0  0  0
  -16.5763    2.6325  -15.5951 C   0  0  0  0  0  0  0  0  0  0  0  0
  -15.2322    2.0428  -15.2000 C   0  0  0  0  0  0  0  0  0  0  0  0
  -15.9600    1.4753  -16.3787 C   0  0  0  0  0  0  0  0  0  0  0  0
 36 37  1  0  0  0
 37 32  1  0  0  0
 37 38  1  0  0  0
 37 39  1  0  0  0
 32 33  2  0  0  0
 32 34  1  0  0  0
 34 26  1  0  0  0
 34 35  1  0  0  0
 26 27  1  0  0  0
 26 31  2  0  0  0
 27 28  2  0  0  0
 28 25  1  0  0  0
 28 29  1  0  0  0
 25  1  1  0  0  0
  1  2  1  0  0  0
  1  6  2  0  0  0
  2  3  2  0  0  0
  3  4  1  0  0  0
  4  8  1  0  0  0
  4  5  2  0  0  0
  8  9  1  0  0  0
  8 12  1  0  0  0
  9 10  2  0  0  0
  9 11  1  0  0  0
 11 14  1  0  0  0
 11 13  1  0  0  0
 14 15  1  0  0  0
 14 20  2  0  0  0
 15 16  2  0  0  0
 16 17  1  0  0  0
 17 18  1  0  0  0
 17 19  2  0  0  0
 19 21  1  0  0  0
 19 20  1  0  0  0
 21 22  1  0  0  0
 21 23  1  0  0  0
 21 24  1  0  0  0
  5  6  1  0  0  0
  6  7  1  0  0  0
 29 30  2  0  0  0
 30 31  1  0  0  0
 38 39  1  0  0  0
M  END
> <minimizedAffinity>
-12.32434

$$$$
