CHEMBL1997872


 24 27  0  0  0  0  0  0  0  0999 V2000
  -29.2068   -6.6879   -5.0324 C   0  0  0  0  0  0  0  0  0  0  0  0
  -30.3289   -6.8708   -4.2214 C   0  0  0  0  0  0  0  0  0  0  0  0
  -31.1492   -5.7820   -3.9313 C   0  0  0  0  0  0  0  0  0  0  0  0
  -30.8175   -4.5062   -4.4028 C   0  0  0  0  0  0  0  0  0  0  0  0
  -29.6889   -4.2918   -5.2142 C   0  0  0  0  0  0  0  0  0  0  0  0
  -28.9609   -5.4314   -5.5962 C   0  0  0  0  0  0  0  0  0  0  0  0
  -29.1988   -2.9362   -5.5621 C   0  0  0  0  0  0  0  0  0  0  0  0
  -28.0741   -2.7503   -6.3831 C   0  0  0  0  0  0  0  0  0  0  0  0
  -27.5693   -1.5756   -6.8454 N   0  0  0  0  0  0  0  0  0  0  0  0
  -28.2938   -0.5161   -6.4529 C   0  0  0  0  0  0  0  0  0  0  0  0
  -28.0148    0.7798   -6.7877 N   0  0  0  0  0  0  0  0  0  0  0  0
  -28.9611    1.6126   -6.2444 C   0  0  0  0  0  0  0  0  0  0  0  0
  -29.8559    0.8322   -5.5413 C   0  0  0  0  0  0  0  0  0  0  0  0
  -29.4317   -0.5190   -5.6599 C   0  0  0  0  0  0  0  0  0  0  0  0
  -29.8876   -1.7645   -5.1908 C   0  0  0  0  0  0  0  0  0  0  0  0
  -27.2270    1.0527   -7.3560 H   0  0  0  0  0  0  0  0  0  0  0  0
  -27.3312   -7.9635   -4.5123 O   0  0  0  0  0  0  0  0  0  0  0  0
  -28.2839   -7.8333   -5.2745 C   0  0  0  0  0  0  0  0  0  0  0  0
  -28.5158   -8.6957   -6.3511 N   0  0  0  0  0  0  0  0  0  0  0  0
  -27.7269   -9.9261   -6.4578 C   0  0  0  0  0  0  0  0  0  0  0  0
  -27.1235  -10.0706   -7.8579 C   0  0  0  0  0  0  0  0  0  0  0  0
  -28.1430   -9.9988   -8.8710 O   0  0  0  0  0  0  0  0  0  0  0  0
  -28.8084   -8.7324   -8.8154 C   0  0  0  0  0  0  0  0  0  0  0  0
  -29.4716   -8.5146   -7.4547 C   0  0  0  0  0  0  0  0  0  0  0  0
 17 18  2  0  0  0
 18  1  1  0  0  0
 18 19  1  0  0  0
  1  2  1  0  0  0
  1  6  2  0  0  0
  2  3  2  0  0  0
  3  4  1  0  0  0
  4  5  2  0  0  0
  5  7  1  0  0  0
  5  6  1  0  0  0
  7  8  1  0  0  0
  7 15  2  0  0  0
  8  9  2  0  0  0
  9 10  1  0  0  0
 10 11  1  0  0  0
 10 14  2  0  0  0
 11 12  1  0  0  0
 11 16  1  0  0  0
 12 13  2  0  0  0
 13 14  1  0  0  0
 14 15  1  0  0  0
 19 20  1  0  0  0
 19 24  1  0  0  0
 20 21  1  0  0  0
 21 22  1  0  0  0
 22 23  1  0  0  0
 23 24  1  0  0  0
M  END
> <minimizedAffinity>
-8.40541

$$$$
