CHEMBL219983


 29 31  0  0  0  0  0  0  0  0999 V2000
  -20.3203    1.6074  -14.6631 C   0  0  0  0  0  0  0  0  0  0  0  0
  -20.2259    3.0004  -14.6743 C   0  0  0  0  0  0  0  0  0  0  0  0
  -19.1005    3.6795  -15.1377 N   0  0  0  0  0  0  0  0  0  0  0  0
  -21.2604    3.8009  -14.3675 N   0  0  0  0  0  0  0  0  0  0  0  0
  -22.3955    3.2029  -13.9995 C   0  0  0  0  0  0  0  0  0  0  0  0
  -22.5805    1.8858  -13.9251 N   0  0  0  0  0  0  0  0  0  0  0  0
  -21.5536    1.0973  -14.3033 C   0  0  0  0  0  0  0  0  0  0  0  0
  -18.2419    3.2573  -14.7882 H   0  0  0  0  0  0  0  0  0  0  0  0
  -19.1951    4.6696  -14.9401 H   0  0  0  0  0  0  0  0  0  0  0  0
  -17.9795    1.0446  -14.5360 N   0  0  0  0  0  0  0  0  0  0  0  0
  -19.1601    0.7720  -15.0128 C   0  0  0  0  0  0  0  0  0  0  0  0
  -17.0378    0.1396  -15.0373 O   0  0  0  0  0  0  0  0  0  0  0  0
  -15.7402    0.5491  -14.5896 C   0  0  0  0  0  0  0  0  0  0  0  0
  -15.6446    0.2951  -13.0905 C   0  0  0  0  0  0  0  0  0  0  0  0
  -13.4091    0.8464  -13.5731 C   0  0  0  0  0  0  0  0  0  0  0  0
  -14.4197    0.8139  -12.5715 O   0  0  0  0  0  0  0  0  0  0  0  0
  -21.7707   -0.2804  -14.3115 O   0  0  0  0  0  0  0  0  0  0  0  0
  -22.8109   -0.7595  -13.5270 C   0  0  0  0  0  0  0  0  0  0  0  0
  -22.6458   -1.0412  -12.1646 C   0  0  0  0  0  0  0  0  0  0  0  0
  -23.6792   -1.5684  -11.3867 C   0  0  0  0  0  0  0  0  0  0  0  0
  -24.9317   -1.7054  -11.9885 C   0  0  0  0  0  0  0  0  0  0  0  0
  -26.1197   -2.1432  -11.4537 N   0  0  0  0  0  0  0  0  0  0  0  0
  -27.1459   -1.9115  -12.3350 C   0  0  0  0  0  0  0  0  0  0  0  0
  -28.5675   -2.0438  -11.9334 C   0  0  0  0  0  0  0  0  0  0  0  0
  -26.5713   -1.5398  -13.5352 C   0  0  0  0  0  0  0  0  0  0  0  0
  -25.1702   -1.3631  -13.3221 C   0  0  0  0  0  0  0  0  0  0  0  0
  -24.0814   -0.9067  -14.1037 C   0  0  0  0  0  0  0  0  0  0  0  0
  -24.2776   -0.5862  -15.3949 F   0  0  0  0  0  0  0  0  0  0  0  0
  -26.2300   -2.4764  -10.5067 H   0  0  0  0  0  0  0  0  0  0  0  0
 15 16  1  0  0  0
 16 14  1  0  0  0
 14 13  1  0  0  0
 13 12  1  0  0  0
 12 10  1  0  0  0
 10 11  2  0  0  0
 11  1  1  0  0  0
  1  2  1  0  0  0
  1  7  2  0  0  0
  2  3  1  0  0  0
  2  4  2  0  0  0
  3  8  1  0  0  0
  3  9  1  0  0  0
  4  5  1  0  0  0
  5  6  2  0  0  0
  6  7  1  0  0  0
  7 17  1  0  0  0
 17 18  1  0  0  0
 18 19  1  0  0  0
 18 27  2  0  0  0
 19 20  2  0  0  0
 20 21  1  0  0  0
 21 22  1  0  0  0
 21 26  2  0  0  0
 22 23  1  0  0  0
 22 29  1  0  0  0
 23 24  1  0  0  0
 23 25  2  0  0  0
 25 26  1  0  0  0
 26 27  1  0  0  0
 27 28  1  0  0  0
M  END
> <minimizedAffinity>
-8.42094

$$$$
