CHEMBL493671


 31 34  0  0  0  0  0  0  0  0999 V2000
  -23.8592   -0.2491  -13.4237 C   0  0  0  0  0  0  0  0  0  0  0  0
  -22.6842   -0.9926  -13.6600 C   0  0  0  0  0  0  0  0  0  0  0  0
  -21.4446   -0.3819  -13.9119 C   0  0  0  0  0  0  0  0  0  0  0  0
  -21.3367    1.0188  -14.0142 C   0  0  0  0  0  0  0  0  0  0  0  0
  -20.1883    1.7303  -14.3972 C   0  0  0  0  0  0  0  0  0  0  0  0
  -20.1449    3.0832  -14.4421 N   0  0  0  0  0  0  0  0  0  0  0  0
  -21.2542    3.8089  -14.1643 N   0  0  0  0  0  0  0  0  0  0  0  0
  -22.3924    3.1603  -13.8505 C   0  0  0  0  0  0  0  0  0  0  0  0
  -22.4863    1.7767  -13.7560 C   0  0  0  0  0  0  0  0  0  0  0  0
  -23.7035    1.1451  -13.4334 C   0  0  0  0  0  0  0  0  0  0  0  0
  -25.9085   -1.2391  -15.5894 C   0  0  0  0  0  0  0  0  0  0  0  0
  -26.1126   -1.3555  -14.0986 C   0  0  0  0  0  0  0  0  0  0  0  0
  -27.3342   -1.9415  -13.6859 C   0  0  0  0  0  0  0  0  0  0  0  0
  -27.6296   -2.1504  -12.3403 C   0  0  0  0  0  0  0  0  0  0  0  0
  -26.7096   -1.7586  -11.3787 C   0  0  0  0  0  0  0  0  0  0  0  0
  -25.5090   -1.1512  -11.7732 C   0  0  0  0  0  0  0  0  0  0  0  0
  -25.1681   -0.9206  -13.1271 C   0  0  0  0  0  0  0  0  0  0  0  0
  -26.9247   -1.9787   -9.9156 C   0  0  0  0  0  0  0  0  0  0  0  0
  -26.5096   -1.1576   -9.1130 O   0  0  0  0  0  0  0  0  0  0  0  0
  -27.6347   -3.1130   -9.5710 N   0  0  0  0  0  0  0  0  0  0  0  0
  -28.0823   -3.6589  -10.2870 H   0  0  0  0  0  0  0  0  0  0  0  0
  -27.9529   -3.4020   -8.2058 C   0  0  0  0  0  0  0  0  0  0  0  0
  -28.3862   -4.7846   -7.8022 C   0  0  0  0  0  0  0  0  0  0  0  0
  -29.3795   -3.6600   -7.7980 C   0  0  0  0  0  0  0  0  0  0  0  0
  -19.0823    1.0252  -14.8602 O   0  0  0  0  0  0  0  0  0  0  0  0
  -17.8313    1.6745  -14.5148 C   0  0  0  0  0  0  0  0  0  0  0  0
  -17.0025    0.6939  -13.6804 C   0  0  0  0  0  0  0  0  0  0  0  0
  -17.0102    2.1489  -15.7369 C   0  0  0  0  0  0  0  0  0  0  0  0
  -16.4359    1.1305  -16.4168 F   0  0  0  0  0  0  0  0  0  0  0  0
  -17.7888    2.8332  -16.6074 F   0  0  0  0  0  0  0  0  0  0  0  0
  -16.0018    2.9830  -15.3807 F   0  0  0  0  0  0  0  0  0  0  0  0
 11 12  1  0  0  0
 12 13  1  0  0  0
 12 17  2  0  0  0
 13 14  2  0  0  0
 14 15  1  0  0  0
 15 18  1  0  0  0
 15 16  2  0  0  0
 18 19  2  0  0  0
 18 20  1  0  0  0
 20 22  1  0  0  0
 20 21  1  0  0  0
 22 23  1  0  0  0
 22 24  1  0  0  0
 23 24  1  0  0  0
 16 17  1  0  0  0
 17  1  1  0  0  0
  1  2  1  0  0  0
  1 10  2  0  0  0
  2  3  2  0  0  0
  3  4  1  0  0  0
  4  5  1  0  0  0
  4  9  2  0  0  0
  5 25  1  0  0  0
  5  6  2  0  0  0
 25 26  1  0  0  0
 26 27  1  0  0  0
 26 28  1  0  0  0
 28 29  1  0  0  0
 28 30  1  0  0  0
 28 31  1  0  0  0
  6  7  1  0  0  0
  7  8  2  0  0  0
  8  9  1  0  0  0
  9 10  1  0  0  0
M  END
> <minimizedAffinity>
-9.85970

$$$$
