CHEMBL3702617


 33 36  0  0  0  0  0  0  0  0999 V2000
  -16.4441    0.8638  -14.4658 C   0  0  0  0  0  0  0  0  0  0  0  0
  -17.8160    0.9420  -14.6951 C   0  0  0  0  0  0  0  0  0  0  0  0
  -18.3158    2.0183  -15.4209 C   0  0  0  0  0  0  0  0  0  0  0  0
  -17.4508    3.0069  -15.9114 C   0  0  0  0  0  0  0  0  0  0  0  0
  -16.0630    2.9467  -15.7118 C   0  0  0  0  0  0  0  0  0  0  0  0
  -15.5851    1.8370  -14.9999 C   0  0  0  0  0  0  0  0  0  0  0  0
  -15.2194    3.9503  -16.1483 N   0  0  0  0  0  0  0  0  0  0  0  0
  -13.9220    4.2385  -15.5324 C   0  0  0  0  0  0  0  0  0  0  0  0
  -12.8189    4.1382  -16.5843 C   0  0  0  0  0  0  0  0  0  0  0  0
  -13.1871    4.8533  -17.8598 C   0  0  0  0  0  0  0  0  0  0  0  0
  -12.1807    5.1229  -18.7230 N   0  0  0  0  0  0  0  0  0  0  0  0
  -12.5094    5.7181  -19.8745 C   0  0  0  0  0  0  0  0  0  0  0  0
  -11.4958    6.0086  -20.7620 N   0  0  0  0  0  0  0  0  0  0  0  0
  -13.7535    6.0173  -20.2544 N   0  0  0  0  0  0  0  0  0  0  0  0
  -14.7292    5.7324  -19.3746 C   0  0  0  0  0  0  0  0  0  0  0  0
  -14.5077    5.1481  -18.1463 C   0  0  0  0  0  0  0  0  0  0  0  0
  -15.6329    4.8910  -17.1924 C   0  0  0  0  0  0  0  0  0  0  0  0
  -10.7191    5.3809  -20.6037 H   0  0  0  0  0  0  0  0  0  0  0  0
  -11.8747    6.0555  -21.6965 H   0  0  0  0  0  0  0  0  0  0  0  0
  -15.8787   -1.4825  -14.1691 N   0  0  0  0  0  0  0  0  0  0  0  0
  -15.8379   -0.2109  -13.6386 C   0  0  0  0  0  0  0  0  0  0  0  0
  -15.3977    0.0502  -12.5236 O   0  0  0  0  0  0  0  0  0  0  0  0
  -16.2830   -1.6380  -15.0825 H   0  0  0  0  0  0  0  0  0  0  0  0
  -14.2533   -5.3775  -13.0886 C   0  0  0  0  0  0  0  0  0  0  0  0
  -13.3856   -4.0993  -13.0049 C   0  0  0  0  0  0  0  0  0  0  0  0
  -13.9367   -2.9438  -13.8354 C   0  0  0  0  0  0  0  0  0  0  0  0
  -15.3719   -2.6240  -13.4268 C   0  0  0  0  0  0  0  0  0  0  0  0
  -16.2537   -3.8541  -13.6322 C   0  0  0  0  0  0  0  0  0  0  0  0
  -15.7404   -5.0438  -12.8190 C   0  0  0  0  0  0  0  0  0  0  0  0
  -14.3266   -7.9166  -12.5428 C   0  0  0  0  0  0  0  0  0  0  0  0
  -13.7037   -6.5512  -12.1857 C   0  0  0  0  0  0  0  0  0  0  0  0
  -13.9996   -6.2675  -10.6961 C   0  0  0  0  0  0  0  0  0  0  0  0
  -12.1711   -6.6774  -12.3258 C   0  0  0  0  0  0  0  0  0  0  0  0
 30 31  1  0  0  0
 31 32  1  0  0  0
 31 33  1  0  0  0
 31 24  1  0  0  0
 24 25  1  0  0  0
 24 29  1  0  0  0
 25 26  1  0  0  0
 26 27  1  0  0  0
 27 20  1  0  0  0
 27 28  1  0  0  0
 20 21  1  0  0  0
 20 23  1  0  0  0
 21 22  2  0  0  0
 21  1  1  0  0  0
  1  2  1  0  0  0
  1  6  2  0  0  0
  2  3  2  0  0  0
  3  4  1  0  0  0
  4  5  2  0  0  0
  5  7  1  0  0  0
  5  6  1  0  0  0
  7  8  1  0  0  0
  7 17  1  0  0  0
  8  9  1  0  0  0
  9 10  1  0  0  0
 10 11  1  0  0  0
 10 16  2  0  0  0
 11 12  2  0  0  0
 12 13  1  0  0  0
 12 14  1  0  0  0
 13 18  1  0  0  0
 13 19  1  0  0  0
 14 15  2  0  0  0
 15 16  1  0  0  0
 16 17  1  0  0  0
 28 29  1  0  0  0
M  END
> <minimizedAffinity>
-8.04537

$$$$
