CHEMBL3694713


 38 41  0  0  0  0  0  0  0  0999 V2000
  -28.8321   -4.4233   -6.5182 C   0  0  0  0  0  0  0  0  0  0  0  0
  -28.4248   -4.9351   -7.8334 C   0  0  0  0  0  0  0  0  0  0  0  0
  -27.9022   -4.1070   -8.7508 C   0  0  0  0  0  0  0  0  0  0  0  0
  -27.7930   -2.7402   -8.4794 N   0  0  0  0  0  0  0  0  0  0  0  0
  -27.3477   -1.6714   -9.2619 C   0  0  0  0  0  0  0  0  0  0  0  0
  -27.4350   -0.5825   -8.4064 C   0  0  0  0  0  0  0  0  0  0  0  0
  -27.9352   -0.9182   -7.1792 N   0  0  0  0  0  0  0  0  0  0  0  0
  -28.1658   -2.2097   -7.2451 C   0  0  0  0  0  0  0  0  0  0  0  0
  -28.6971   -3.1000   -6.2662 C   0  0  0  0  0  0  0  0  0  0  0  0
  -29.0893   -7.2759   -4.2553 C   0  0  0  0  0  0  0  0  0  0  0  0
  -30.1123   -6.9012   -3.4082 C   0  0  0  0  0  0  0  0  0  0  0  0
  -30.7287   -5.7010   -3.6748 C   0  0  0  0  0  0  0  0  0  0  0  0
  -31.7387   -5.2269   -2.8405 N   0  0  0  0  0  0  0  0  0  0  0  0
  -30.3555   -4.9011   -4.6762 N   0  0  0  0  0  0  0  0  0  0  0  0
  -29.3380   -5.3264   -5.4461 C   0  0  0  0  0  0  0  0  0  0  0  0
  -28.6874   -6.4934   -5.2787 N   0  0  0  0  0  0  0  0  0  0  0  0
  -32.4649   -5.9154   -2.6821 H   0  0  0  0  0  0  0  0  0  0  0  0
  -32.1036   -4.3701   -3.2501 H   0  0  0  0  0  0  0  0  0  0  0  0
  -28.3444   -8.5677   -4.0276 C   0  0  0  0  0  0  0  0  0  0  0  0
  -29.0539  -10.7715   -3.6082 C   0  0  0  0  0  0  0  0  0  0  0  0
  -29.0976   -9.4220   -3.1638 O   0  0  0  0  0  0  0  0  0  0  0  0
  -26.9501   -1.7078  -10.6807 C   0  0  0  0  0  0  0  0  0  0  0  0
  -27.9164   -1.8288  -11.6838 C   0  0  0  0  0  0  0  0  0  0  0  0
  -27.5602   -1.8650  -13.0245 C   0  0  0  0  0  0  0  0  0  0  0  0
  -26.2315   -1.6981  -13.3911 C   0  0  0  0  0  0  0  0  0  0  0  0
  -25.2393   -1.4886  -12.4321 C   0  0  0  0  0  0  0  0  0  0  0  0
  -25.6026   -1.5332  -11.0727 C   0  0  0  0  0  0  0  0  0  0  0  0
  -23.8906   -1.2094  -12.7837 N   0  0  0  0  0  0  0  0  0  0  0  0
  -23.3703    0.0424  -13.0387 C   0  0  0  0  0  0  0  0  0  0  0  0
  -23.9720    1.1118  -13.0108 O   0  0  0  0  0  0  0  0  0  0  0  0
  -22.0458    0.0212  -13.4022 N   0  0  0  0  0  0  0  0  0  0  0  0
  -23.2542   -1.9855  -12.8039 H   0  0  0  0  0  0  0  0  0  0  0  0
  -21.4685   -0.7190  -13.0297 H   0  0  0  0  0  0  0  0  0  0  0  0
  -21.3955    1.3112  -13.6967 C   0  0  0  0  0  0  0  0  0  0  0  0
  -20.2333    1.2798  -14.7033 C   0  0  0  0  0  0  0  0  0  0  0  0
  -19.0281    1.4056  -14.1030 F   0  0  0  0  0  0  0  0  0  0  0  0
  -20.2236    0.0874  -15.3528 F   0  0  0  0  0  0  0  0  0  0  0  0
  -20.3390    2.2425  -15.6432 F   0  0  0  0  0  0  0  0  0  0  0  0
 20 21  1  0  0  0
 21 19  1  0  0  0
 19 10  1  0  0  0
 10 11  1  0  0  0
 10 16  2  0  0  0
 11 12  2  0  0  0
 12 13  1  0  0  0
 12 14  1  0  0  0
 13 17  1  0  0  0
 13 18  1  0  0  0
 14 15  2  0  0  0
 15  1  1  0  0  0
 15 16  1  0  0  0
  1  2  1  0  0  0
  1  9  2  0  0  0
  2  3  2  0  0  0
  3  4  1  0  0  0
  4  5  1  0  0  0
  4  8  1  0  0  0
  5 22  1  0  0  0
  5  6  2  0  0  0
 22 23  1  0  0  0
 22 27  2  0  0  0
 23 24  2  0  0  0
 24 25  1  0  0  0
 25 26  2  0  0  0
 26 28  1  0  0  0
 26 27  1  0  0  0
 28 29  1  0  0  0
 28 32  1  0  0  0
 29 30  2  0  0  0
 29 31  1  0  0  0
 31 34  1  0  0  0
 31 33  1  0  0  0
 34 35  1  0  0  0
 35 36  1  0  0  0
 35 37  1  0  0  0
 35 38  1  0  0  0
  6  7  1  0  0  0
  7  8  2  0  0  0
  8  9  1  0  0  0
M  END
> <minimizedAffinity>
-9.60672

$$$$
