CHEMBL3752391


 36 40  0  0  0  0  0  0  0  0999 V2000
  -28.5811   -3.1256   -6.6634 N   0  0  0  0  0  0  0  0  0  0  0  0
  -28.3489   -1.6843   -6.9580 C   0  0  0  0  0  0  0  0  0  0  0  0
  -28.3194   -1.2692   -8.4517 C   0  0  0  0  0  0  0  0  0  0  0  0
  -27.5206   -2.1897   -9.2738 N   0  0  0  0  0  0  0  0  0  0  0  0
  -27.5825   -3.6177   -8.9557 C   0  0  0  0  0  0  0  0  0  0  0  0
  -27.5714   -3.8855   -7.4365 C   0  0  0  0  0  0  0  0  0  0  0  0
  -26.7030   -1.6703  -10.2701 C   0  0  0  0  0  0  0  0  0  0  0  0
  -25.5081   -1.1697   -9.8896 N   0  0  0  0  0  0  0  0  0  0  0  0
  -24.5812   -0.7057  -10.8003 N   0  0  0  0  0  0  0  0  0  0  0  0
  -24.8121   -0.7936  -12.1282 C   0  0  0  0  0  0  0  0  0  0  0  0
  -26.0145   -1.3622  -12.6032 C   0  0  0  0  0  0  0  0  0  0  0  0
  -26.2891   -1.6181  -13.9755 C   0  0  0  0  0  0  0  0  0  0  0  0
  -27.5414   -2.0209  -14.4336 C   0  0  0  0  0  0  0  0  0  0  0  0
  -28.5683   -2.1800  -13.5269 C   0  0  0  0  0  0  0  0  0  0  0  0
  -28.3058   -2.0112  -12.1696 C   0  0  0  0  0  0  0  0  0  0  0  0
  -27.0168   -1.6988  -11.6559 C   0  0  0  0  0  0  0  0  0  0  0  0
  -23.7470   -0.1715  -12.9681 C   0  0  0  0  0  0  0  0  0  0  0  0
  -23.6922    1.2213  -13.1676 C   0  0  0  0  0  0  0  0  0  0  0  0
  -22.6852    1.8151  -13.9423 C   0  0  0  0  0  0  0  0  0  0  0  0
  -21.6951    1.0304  -14.5242 C   0  0  0  0  0  0  0  0  0  0  0  0
  -21.7425   -0.3499  -14.3796 C   0  0  0  0  0  0  0  0  0  0  0  0
  -22.7770   -0.9389  -13.6453 C   0  0  0  0  0  0  0  0  0  0  0  0
  -29.9390   -3.5710   -7.0560 C   0  0  0  0  0  0  0  0  0  0  0  0
  -30.3873   -5.8713   -7.6995 N   0  0  0  0  0  0  0  0  0  0  0  0
  -30.2328   -5.0057   -6.6401 C   0  0  0  0  0  0  0  0  0  0  0  0
  -30.3706   -5.2660   -5.4450 O   0  0  0  0  0  0  0  0  0  0  0  0
  -30.3965   -5.4834   -8.6356 H   0  0  0  0  0  0  0  0  0  0  0  0
  -30.2441   -9.6265   -7.5185 C   0  0  0  0  0  0  0  0  0  0  0  0
  -29.2436   -8.2821   -7.8343 S   0  0  0  0  0  0  0  0  0  0  0  0
  -30.5517   -7.2273   -7.6042 C   0  0  0  0  0  0  0  0  0  0  0  0
  -31.7117   -7.8010   -7.4027 N   0  0  0  0  0  0  0  0  0  0  0  0
  -31.5452   -9.1846   -7.3140 C   0  0  0  0  0  0  0  0  0  0  0  0
  -32.7349  -10.0231   -7.0011 C   0  0  0  0  0  0  0  0  0  0  0  0
  -29.6924  -11.7694   -8.7816 C   0  0  0  0  0  0  0  0  0  0  0  0
  -29.7073  -10.9782   -7.4894 C   0  0  0  0  0  0  0  0  0  0  0  0
  -29.2723  -11.4954   -6.4597 O   0  0  0  0  0  0  0  0  0  0  0  0
 34 35  1  0  0  0
 35 36  2  0  0  0
 35 28  1  0  0  0
 28 29  1  0  0  0
 28 32  2  0  0  0
 29 30  1  0  0  0
 30 24  1  0  0  0
 30 31  2  0  0  0
 24 25  1  0  0  0
 24 27  1  0  0  0
 25 26  2  0  0  0
 25 23  1  0  0  0
 23  1  1  0  0  0
  1  2  1  0  0  0
  1  6  1  0  0  0
  2  3  1  0  0  0
  3  4  1  0  0  0
  4  7  1  0  0  0
  4  5  1  0  0  0
  7  8  1  0  0  0
  7 16  2  0  0  0
  8  9  2  0  0  0
  9 10  1  0  0  0
 10 17  1  0  0  0
 10 11  2  0  0  0
 17 18  1  0  0  0
 17 22  2  0  0  0
 18 19  2  0  0  0
 19 20  1  0  0  0
 20 21  2  0  0  0
 21 22  1  0  0  0
 11 12  1  0  0  0
 11 16  1  0  0  0
 12 13  2  0  0  0
 13 14  1  0  0  0
 14 15  2  0  0  0
 15 16  1  0  0  0
  5  6  1  0  0  0
 31 32  1  0  0  0
 32 33  1  0  0  0
M  END
> <minimizedAffinity>
-7.82472

$$$$
