CHEMBL1970522


 25 27  0  0  0  0  0  0  0  0999 V2000
  -28.7079   -7.1418   -5.7107 C   0  0  0  0  0  0  0  0  0  0  0  0
  -28.7370   -5.8059   -5.6035 C   0  0  0  0  0  0  0  0  0  0  0  0
  -28.1815   -4.9128   -4.2254 S   0  0  0  0  0  0  0  0  0  0  0  0
  -28.4813   -3.3740   -5.0083 C   0  0  0  0  0  0  0  0  0  0  0  0
  -28.3874   -2.2490   -4.3870 N   0  0  0  0  0  0  0  0  0  0  0  0
  -28.8340   -3.5827   -6.3026 N   0  0  0  0  0  0  0  0  0  0  0  0
  -29.1951   -4.8471   -6.6494 C   0  0  0  0  0  0  0  0  0  0  0  0
  -29.8732   -5.0996   -7.6324 O   0  0  0  0  0  0  0  0  0  0  0  0
  -29.0970   -2.8342   -6.9191 H   0  0  0  0  0  0  0  0  0  0  0  0
  -30.8121   -9.0447   -8.1795 C   0  0  0  0  0  0  0  0  0  0  0  0
  -30.4367   -8.2545   -7.0965 C   0  0  0  0  0  0  0  0  0  0  0  0
  -29.1053   -7.8406   -6.9364 C   0  0  0  0  0  0  0  0  0  0  0  0
  -28.1456   -8.2002   -7.8896 C   0  0  0  0  0  0  0  0  0  0  0  0
  -28.5124   -8.9886   -8.9806 C   0  0  0  0  0  0  0  0  0  0  0  0
  -29.8322   -9.4142   -9.1161 C   0  0  0  0  0  0  0  0  0  0  0  0
  -30.1847  -10.2165  -10.1696 O   0  0  0  0  0  0  0  0  0  0  0  0
  -29.3804  -10.4857  -10.6392 H   0  0  0  0  0  0  0  0  0  0  0  0
  -32.9933   -9.4738   -7.3171 C   0  0  0  0  0  0  0  0  0  0  0  0
  -32.0760   -9.5308   -8.4002 O   0  0  0  0  0  0  0  0  0  0  0  0
  -28.7092   -1.0296   -5.0139 C   0  0  0  0  0  0  0  0  0  0  0  0
  -30.0150   -0.5199   -5.0622 C   0  0  0  0  0  0  0  0  0  0  0  0
  -30.3030    0.6667   -5.7388 C   0  0  0  0  0  0  0  0  0  0  0  0
  -29.2706    1.4105   -6.3001 C   0  0  0  0  0  0  0  0  0  0  0  0
  -27.9547    0.9656   -6.1829 C   0  0  0  0  0  0  0  0  0  0  0  0
  -27.6797   -0.2532   -5.5521 C   0  0  0  0  0  0  0  0  0  0  0  0
 18 19  1  0  0  0
 19 10  1  0  0  0
 10 11  1  0  0  0
 10 15  2  0  0  0
 11 12  2  0  0  0
 12  1  1  0  0  0
 12 13  1  0  0  0
  1  2  2  0  0  0
  2  3  1  0  0  0
  2  7  1  0  0  0
  3  4  1  0  0  0
  4  5  2  0  0  0
  4  6  1  0  0  0
  5 20  1  0  0  0
 20 21  1  0  0  0
 20 25  2  0  0  0
 21 22  2  0  0  0
 22 23  1  0  0  0
 23 24  2  0  0  0
 24 25  1  0  0  0
  6  7  1  0  0  0
  6  9  1  0  0  0
  7  8  2  0  0  0
 13 14  2  0  0  0
 14 15  1  0  0  0
 15 16  1  0  0  0
 16 17  1  0  0  0
M  END
> <minimizedAffinity>
-8.12787

$$$$
