CHEMBL190872


 31 33  0  0  0  0  0  0  0  0999 V2000
  -28.9267   -8.3457   -4.3712 C   0  0  0  0  0  0  0  0  0  0  0  0
  -28.9713   -9.2098   -3.3795 N   0  0  0  0  0  0  0  0  0  0  0  0
  -27.7901   -9.8795   -3.4514 C   0  0  0  0  0  0  0  0  0  0  0  0
  -27.0462   -9.4156   -4.5105 C   0  0  0  0  0  0  0  0  0  0  0  0
  -27.7681   -8.4074   -5.1042 O   0  0  0  0  0  0  0  0  0  0  0  0
  -25.7532   -9.7765   -5.0677 C   0  0  0  0  0  0  0  0  0  0  0  0
  -25.6822  -10.2329   -6.3939 C   0  0  0  0  0  0  0  0  0  0  0  0
  -24.4643  -10.6075   -6.9614 C   0  0  0  0  0  0  0  0  0  0  0  0
  -23.2875  -10.5203   -6.2153 C   0  0  0  0  0  0  0  0  0  0  0  0
  -23.3402  -10.0607   -4.8939 C   0  0  0  0  0  0  0  0  0  0  0  0
  -24.5679   -9.6905   -4.3261 C   0  0  0  0  0  0  0  0  0  0  0  0
  -22.0255  -10.9613   -6.8624 C   0  0  0  0  0  0  0  0  0  0  0  0
  -21.0938  -10.0042   -7.1467 N   0  0  0  0  0  0  0  0  0  0  0  0
  -21.8371  -12.1325   -7.1660 O   0  0  0  0  0  0  0  0  0  0  0  0
  -21.2994   -9.0165   -7.1292 H   0  0  0  0  0  0  0  0  0  0  0  0
  -20.2926  -10.3112   -7.6839 H   0  0  0  0  0  0  0  0  0  0  0  0
  -29.8538   -7.4641   -4.7850 N   0  0  0  0  0  0  0  0  0  0  0  0
  -30.7856   -7.5153   -4.3873 H   0  0  0  0  0  0  0  0  0  0  0  0
  -28.9252   -3.8951   -5.4119 C   0  0  0  0  0  0  0  0  0  0  0  0
  -29.2352   -3.7661   -6.7620 C   0  0  0  0  0  0  0  0  0  0  0  0
  -29.7072   -4.8784   -7.4675 C   0  0  0  0  0  0  0  0  0  0  0  0
  -29.8957   -6.1069   -6.8168 C   0  0  0  0  0  0  0  0  0  0  0  0
  -29.6013   -6.2335   -5.4392 C   0  0  0  0  0  0  0  0  0  0  0  0
  -29.0698   -5.1218   -4.7687 C   0  0  0  0  0  0  0  0  0  0  0  0
  -28.3617   -2.5013   -4.4619 S   0  0  0  0  0  0  0  0  0  0  0  0
  -27.0192   -2.1939   -4.9169 O   0  0  0  0  0  0  0  0  0  0  0  0
  -28.6246   -2.8060   -3.0685 O   0  0  0  0  0  0  0  0  0  0  0  0
  -28.6732    0.1463   -5.0911 C   0  0  0  0  0  0  0  0  0  0  0  0
  -29.4327   -1.1622   -4.9739 C   0  0  0  0  0  0  0  0  0  0  0  0
  -30.4070   -7.2359   -7.4162 O   0  0  0  0  0  0  0  0  0  0  0  0
  -29.5162   -7.9773   -8.2443 C   0  0  0  0  0  0  0  0  0  0  0  0
 28 29  1  0  0  0
 29 25  1  0  0  0
 25 26  2  0  0  0
 25 27  2  0  0  0
 25 19  1  0  0  0
 19 20  1  0  0  0
 19 24  2  0  0  0
 20 21  2  0  0  0
 21 22  1  0  0  0
 22 30  1  0  0  0
 22 23  2  0  0  0
 30 31  1  0  0  0
 23 17  1  0  0  0
 23 24  1  0  0  0
 17  1  1  0  0  0
 17 18  1  0  0  0
  1  2  2  0  0  0
  1  5  1  0  0  0
  2  3  1  0  0  0
  3  4  2  0  0  0
  4  6  1  0  0  0
  4  5  1  0  0  0
  6  7  1  0  0  0
  6 11  2  0  0  0
  7  8  2  0  0  0
  8  9  1  0  0  0
  9 12  1  0  0  0
  9 10  2  0  0  0
 12 13  1  0  0  0
 12 14  2  0  0  0
 13 15  1  0  0  0
 13 16  1  0  0  0
 10 11  1  0  0  0
M  END
> <minimizedAffinity>
-8.05347

$$$$
