CHEMBL3952048


 28 31  0  0  0  0  0  0  0  0999 V2000
  -22.6290   -0.5147  -13.3026 C   0  0  0  0  0  0  0  0  0  0  0  0
  -21.4141   -0.1264  -13.8812 C   0  0  0  0  0  0  0  0  0  0  0  0
  -21.1583    1.2101  -14.2540 C   0  0  0  0  0  0  0  0  0  0  0  0
  -19.9298    1.6554  -14.7790 C   0  0  0  0  0  0  0  0  0  0  0  0
  -19.6732    2.9551  -14.9846 N   0  0  0  0  0  0  0  0  0  0  0  0
  -20.6745    3.8041  -14.7190 C   0  0  0  0  0  0  0  0  0  0  0  0
  -21.9040    3.4757  -14.2910 N   0  0  0  0  0  0  0  0  0  0  0  0
  -22.1418    2.1757  -14.0529 C   0  0  0  0  0  0  0  0  0  0  0  0
  -23.3840    1.7557  -13.5791 C   0  0  0  0  0  0  0  0  0  0  0  0
  -23.6616    0.4169  -13.2324 C   0  0  0  0  0  0  0  0  0  0  0  0
  -23.0116   -1.8220  -11.3730 C   0  0  0  0  0  0  0  0  0  0  0  0
  -22.7948   -1.7706  -12.7856 O   0  0  0  0  0  0  0  0  0  0  0  0
  -18.9547    0.6793  -15.1059 N   0  0  0  0  0  0  0  0  0  0  0  0
  -19.2897    0.0958  -15.8660 H   0  0  0  0  0  0  0  0  0  0  0  0
  -17.5530    0.6935  -14.9822 C   0  0  0  0  0  0  0  0  0  0  0  0
  -16.9898    0.3934  -13.7358 C   0  0  0  0  0  0  0  0  0  0  0  0
  -15.6243    0.5703  -13.4960 C   0  0  0  0  0  0  0  0  0  0  0  0
  -14.7960    1.0661  -14.5047 C   0  0  0  0  0  0  0  0  0  0  0  0
  -13.1339    1.3258  -14.1242 Cl  0  0  0  0  0  0  0  0  0  0  0  0
  -15.3408    1.3642  -15.7550 C   0  0  0  0  0  0  0  0  0  0  0  0
  -14.3833    1.9934  -17.0510 Cl  0  0  0  0  0  0  0  0  0  0  0  0
  -16.7117    1.1853  -15.9877 C   0  0  0  0  0  0  0  0  0  0  0  0
  -24.9362    0.2250  -12.7710 O   0  0  0  0  0  0  0  0  0  0  0  0
  -25.5685   -1.0561  -12.8483 C   0  0  0  0  0  0  0  0  0  0  0  0
  -26.1709   -1.3547  -14.2227 C   0  0  0  0  0  0  0  0  0  0  0  0
  -27.4994   -2.0713  -13.9864 C   0  0  0  0  0  0  0  0  0  0  0  0
  -27.7877   -2.0016  -12.4945 C   0  0  0  0  0  0  0  0  0  0  0  0
  -26.7833   -1.0207  -11.9164 C   0  0  0  0  0  0  0  0  0  0  0  0
 11 12  1  0  0  0
 12  1  1  0  0  0
  1  2  1  0  0  0
  1 10  2  0  0  0
  2  3  2  0  0  0
  3  4  1  0  0  0
  3  8  1  0  0  0
  4 13  1  0  0  0
  4  5  2  0  0  0
 13 15  1  0  0  0
 13 14  1  0  0  0
 15 16  1  0  0  0
 15 22  2  0  0  0
 16 17  2  0  0  0
 17 18  1  0  0  0
 18 19  1  0  0  0
 18 20  2  0  0  0
 20 21  1  0  0  0
 20 22  1  0  0  0
  5  6  1  0  0  0
  6  7  2  0  0  0
  7  8  1  0  0  0
  8  9  2  0  0  0
  9 10  1  0  0  0
 10 23  1  0  0  0
 23 24  1  0  0  0
 24 25  1  0  0  0
 24 28  1  0  0  0
 25 26  1  0  0  0
 26 27  1  0  0  0
 27 28  1  0  0  0
M  END
> <minimizedAffinity>
-7.91522

$$$$
