CHEMBL4282231


 30 34  0  0  0  0  0  0  0  0999 V2000
  -29.0538   -9.6056   -5.4023 C   0  0  0  0  0  0  0  0  0  0  0  0
  -29.7343  -10.5714   -5.9481 N   0  0  0  0  0  0  0  0  0  0  0  0
  -30.9117  -10.2851   -6.6405 C   0  0  0  0  0  0  0  0  0  0  0  0
  -31.2284   -9.1697   -7.4470 C   0  0  0  0  0  0  0  0  0  0  0  0
  -32.3921   -9.3406   -8.0792 N   0  0  0  0  0  0  0  0  0  0  0  0
  -32.8202  -10.5370   -7.6387 N   0  0  0  0  0  0  0  0  0  0  0  0
  -31.9671  -11.1529   -6.7605 C   0  0  0  0  0  0  0  0  0  0  0  0
  -32.2427  -12.4658   -6.1542 C   0  0  0  0  0  0  0  0  0  0  0  0
  -30.5045   -8.0323   -7.4861 N   0  0  0  0  0  0  0  0  0  0  0  0
  -30.0730   -7.4514   -6.2843 C   0  0  0  0  0  0  0  0  0  0  0  0
  -30.3753   -6.1446   -6.1451 N   0  0  0  0  0  0  0  0  0  0  0  0
  -30.1238   -5.5346   -4.9764 C   0  0  0  0  0  0  0  0  0  0  0  0
  -29.5530   -6.1743   -3.9481 N   0  0  0  0  0  0  0  0  0  0  0  0
  -29.2442   -7.4772   -4.1156 C   0  0  0  0  0  0  0  0  0  0  0  0
  -29.4646   -8.1775   -5.2801 C   0  0  0  0  0  0  0  0  0  0  0  0
  -33.7158  -10.8755   -7.9745 H   0  0  0  0  0  0  0  0  0  0  0  0
  -30.9340   -7.2957   -8.0371 H   0  0  0  0  0  0  0  0  0  0  0  0
  -23.8043  -10.7699   -3.1695 C   0  0  0  0  0  0  0  0  0  0  0  0
  -25.1602  -10.5254   -3.7628 C   0  0  0  0  0  0  0  0  0  0  0  0
  -26.3156  -10.9825   -3.1196 C   0  0  0  0  0  0  0  0  0  0  0  0
  -27.5788  -10.7161   -3.6542 C   0  0  0  0  0  0  0  0  0  0  0  0
  -27.7038   -9.9994   -4.8526 C   0  0  0  0  0  0  0  0  0  0  0  0
  -26.5462   -9.5527   -5.5021 C   0  0  0  0  0  0  0  0  0  0  0  0
  -25.2839   -9.8184   -4.9640 C   0  0  0  0  0  0  0  0  0  0  0  0
  -30.4460   -4.2060   -4.8547 N   0  0  0  0  0  0  0  0  0  0  0  0
  -30.1274   -3.2667   -5.9302 C   0  0  0  0  0  0  0  0  0  0  0  0
  -28.9851   -2.3265   -5.5237 C   0  0  0  0  0  0  0  0  0  0  0  0
  -29.2525   -1.6848   -4.2659 O   0  0  0  0  0  0  0  0  0  0  0  0
  -29.3879   -2.6727   -3.2318 C   0  0  0  0  0  0  0  0  0  0  0  0
  -30.5596   -3.6288   -3.5113 C   0  0  0  0  0  0  0  0  0  0  0  0
 18 19  1  0  0  0
 19 20  1  0  0  0
 19 24  2  0  0  0
 20 21  2  0  0  0
 21 22  1  0  0  0
 22  1  1  0  0  0
 22 23  2  0  0  0
  1  2  2  0  0  0
  1 15  1  0  0  0
  2  3  1  0  0  0
  3  4  1  0  0  0
  3  7  2  0  0  0
  4  5  2  0  0  0
  4  9  1  0  0  0
  5  6  1  0  0  0
  6  7  1  0  0  0
  6 16  1  0  0  0
  7  8  1  0  0  0
  9 10  1  0  0  0
  9 17  1  0  0  0
 10 11  1  0  0  0
 10 15  2  0  0  0
 11 12  2  0  0  0
 12 25  1  0  0  0
 12 13  1  0  0  0
 25 26  1  0  0  0
 25 30  1  0  0  0
 26 27  1  0  0  0
 27 28  1  0  0  0
 28 29  1  0  0  0
 29 30  1  0  0  0
 13 14  2  0  0  0
 14 15  1  0  0  0
 23 24  1  0  0  0
M  END
> <minimizedAffinity>
-8.63903

$$$$
