CHEMBL86531


 34 37  0  0  0  0  0  0  0  0999 V2000
  -25.5774   11.1523  -16.2541 C   0  0  0  0  0  0  0  0  0  0  0  0
  -26.0073   10.0118  -16.9617 C   0  0  0  0  0  0  0  0  0  0  0  0
  -27.1553    9.3338  -16.5546 C   0  0  0  0  0  0  0  0  0  0  0  0
  -27.8284    9.8253  -15.4507 C   0  0  0  0  0  0  0  0  0  0  0  0
  -27.4237   10.9669  -14.7449 C   0  0  0  0  0  0  0  0  0  0  0  0
  -26.2841   11.6486  -15.1406 C   0  0  0  0  0  0  0  0  0  0  0  0
  -28.4044   11.1398  -13.6537 C   0  0  0  0  0  0  0  0  0  0  0  0
  -28.4471   12.1442  -12.7600 C   0  0  0  0  0  0  0  0  0  0  0  0
  -29.3707    9.9790  -13.7568 C   0  0  0  0  0  0  0  0  0  0  0  0
  -30.2938    9.6775  -13.0261 O   0  0  0  0  0  0  0  0  0  0  0  0
  -28.9612    9.2692  -14.8738 N   0  0  0  0  0  0  0  0  0  0  0  0
  -29.4332    8.4316  -15.1777 H   0  0  0  0  0  0  0  0  0  0  0  0
  -29.4510   12.2561  -11.7598 C   0  0  0  0  0  0  0  0  0  0  0  0
  -29.0701   12.1021  -10.4458 N   0  0  0  0  0  0  0  0  0  0  0  0
  -30.1652   12.2110   -9.6360 C   0  0  0  0  0  0  0  0  0  0  0  0
  -31.2754   12.4347  -10.4244 C   0  0  0  0  0  0  0  0  0  0  0  0
  -30.8253   12.4847  -11.7857 C   0  0  0  0  0  0  0  0  0  0  0  0
  -32.6530   12.5000   -9.8384 C   0  0  0  0  0  0  0  0  0  0  0  0
  -32.6212   12.6565   -8.3045 C   0  0  0  0  0  0  0  0  0  0  0  0
  -31.5670   11.7521   -7.6457 C   0  0  0  0  0  0  0  0  0  0  0  0
  -30.1488   12.0681   -8.1532 C   0  0  0  0  0  0  0  0  0  0  0  0
  -28.1338   11.8868  -10.1317 H   0  0  0  0  0  0  0  0  0  0  0  0
  -31.6739   12.6576  -13.0136 C   0  0  0  0  0  0  0  0  0  0  0  0
  -33.0752   12.0726  -12.8640 C   0  0  0  0  0  0  0  0  0  0  0  0
  -33.1617   10.6859  -13.4481 C   0  0  0  0  0  0  0  0  0  0  0  0
  -33.2050   10.4144  -14.6368 O   0  0  0  0  0  0  0  0  0  0  0  0
  -33.1864    9.7288  -12.4889 O   0  0  0  0  0  0  0  0  0  0  0  0
  -33.1413   10.0843  -11.5808 H   0  0  0  0  0  0  0  0  0  0  0  0
  -23.1005   10.7011  -17.2073 N   0  0  0  0  0  0  0  0  0  0  0  0
  -24.1099   11.9799  -16.8015 S   0  0  0  0  0  0  0  0  0  0  0  0
  -23.5055   12.6413  -15.6674 O   0  0  0  0  0  0  0  0  0  0  0  0
  -24.3912   12.6589  -18.0444 O   0  0  0  0  0  0  0  0  0  0  0  0
  -22.1816   10.8430  -16.7836 H   0  0  0  0  0  0  0  0  0  0  0  0
  -23.0634   10.5840  -18.2205 H   0  0  0  0  0  0  0  0  0  0  0  0
 29 30  1  0  0  0
 29 33  1  0  0  0
 29 34  1  0  0  0
 30 31  2  0  0  0
 30 32  2  0  0  0
 30  1  1  0  0  0
  1  2  1  0  0  0
  1  6  2  0  0  0
  2  3  2  0  0  0
  3  4  1  0  0  0
  4  5  2  0  0  0
  4 11  1  0  0  0
  5  6  1  0  0  0
  5  7  1  0  0  0
  7  8  2  0  0  0
  7  9  1  0  0  0
  8 13  1  0  0  0
 13 14  1  0  0  0
 13 17  2  0  0  0
 14 15  1  0  0  0
 14 22  1  0  0  0
 15 16  2  0  0  0
 15 21  1  0  0  0
 16 17  1  0  0  0
 16 18  1  0  0  0
 17 23  1  0  0  0
 23 24  1  0  0  0
 24 25  1  0  0  0
 25 26  2  0  0  0
 25 27  1  0  0  0
 27 28  1  0  0  0
 18 19  1  0  0  0
 19 20  1  0  0  0
 20 21  1  0  0  0
  9 10  2  0  0  0
  9 11  1  0  0  0
 11 12  1  0  0  0
M  END
> <minimizedAffinity>
-4.33779

$$$$
