CHEMBL2016894


 23 26  0  0  0  0  0  0  0  0999 V2000
  -26.3079   -1.6216  -10.8876 C   0  0  0  0  0  0  0  0  0  0  0  0
  -25.0372   -1.1798  -10.8264 C   0  0  0  0  0  0  0  0  0  0  0  0
  -24.2940   -0.8391  -12.0368 C   0  0  0  0  0  0  0  0  0  0  0  0
  -22.9642   -0.4172  -11.9775 C   0  0  0  0  0  0  0  0  0  0  0  0
  -22.2770   -0.1074  -13.1524 C   0  0  0  0  0  0  0  0  0  0  0  0
  -22.9217   -0.2110  -14.3880 C   0  0  0  0  0  0  0  0  0  0  0  0
  -24.2504   -0.6305  -14.4547 C   0  0  0  0  0  0  0  0  0  0  0  0
  -24.9293   -0.9477  -13.2784 C   0  0  0  0  0  0  0  0  0  0  0  0
  -26.2552   -1.3934  -13.3322 N   0  0  0  0  0  0  0  0  0  0  0  0
  -26.9792   -1.7547  -12.2244 C   0  0  0  0  0  0  0  0  0  0  0  0
  -28.1322   -2.1749  -12.3381 O   0  0  0  0  0  0  0  0  0  0  0  0
  -26.7245   -1.4852  -14.2227 H   0  0  0  0  0  0  0  0  0  0  0  0
  -30.4580   -4.6824   -6.1528 C   0  0  0  0  0  0  0  0  0  0  0  0
  -29.1044   -4.1544   -6.2204 N   0  0  0  0  0  0  0  0  0  0  0  0
  -28.9615   -2.8112   -5.6236 C   0  0  0  0  0  0  0  0  0  0  0  0
  -28.4473   -1.6002   -6.4429 C   0  0  0  0  0  0  0  0  0  0  0  0
  -27.8818   -2.0150   -7.7319 C   0  0  0  0  0  0  0  0  0  0  0  0
  -27.2998   -1.1826   -8.6422 N   0  0  0  0  0  0  0  0  0  0  0  0
  -26.9654   -1.9532   -9.6698 C   0  0  0  0  0  0  0  0  0  0  0  0
  -27.3386   -3.2595   -9.4223 N   0  0  0  0  0  0  0  0  0  0  0  0
  -27.9035   -3.3042   -8.1771 C   0  0  0  0  0  0  0  0  0  0  0  0
  -28.4167   -4.4874   -7.4727 C   0  0  0  0  0  0  0  0  0  0  0  0
  -27.2075   -4.0311  -10.0696 H   0  0  0  0  0  0  0  0  0  0  0  0
 13 14  1  0  0  0
 14 15  1  0  0  0
 14 22  1  0  0  0
 15 16  1  0  0  0
 16 17  1  0  0  0
 17 18  1  0  0  0
 17 21  2  0  0  0
 18 19  2  0  0  0
 19  1  1  0  0  0
 19 20  1  0  0  0
  1  2  2  0  0  0
  1 10  1  0  0  0
  2  3  1  0  0  0
  3  4  1  0  0  0
  3  8  2  0  0  0
  4  5  2  0  0  0
  5  6  1  0  0  0
  6  7  2  0  0  0
  7  8  1  0  0  0
  8  9  1  0  0  0
  9 10  1  0  0  0
  9 12  1  0  0  0
 10 11  2  0  0  0
 20 21  1  0  0  0
 20 23  1  0  0  0
 21 22  1  0  0  0
M  END
> <minimizedAffinity>
-9.01842

$$$$
