CHEMBL3922100


 37 41  0  0  0  0  0  0  0  0999 V2000
  -27.7937   -2.4082   -8.4870 N   0  0  0  0  0  0  0  0  0  0  0  0
  -27.2897   -1.7282   -9.6709 C   0  0  0  0  0  0  0  0  0  0  0  0
  -28.1162   -1.8348  -10.7685 C   0  0  0  0  0  0  0  0  0  0  0  0
  -27.6033   -1.7579  -12.0379 C   0  0  0  0  0  0  0  0  0  0  0  0
  -26.3134   -1.4297  -12.3033 C   0  0  0  0  0  0  0  0  0  0  0  0
  -26.0032   -1.6614  -13.5800 N   0  0  0  0  0  0  0  0  0  0  0  0
  -24.8320   -1.2134  -14.0169 C   0  0  0  0  0  0  0  0  0  0  0  0
  -23.9850   -0.4506  -13.2423 C   0  0  0  0  0  0  0  0  0  0  0  0
  -24.2497   -0.3135  -11.8683 N   0  0  0  0  0  0  0  0  0  0  0  0
  -25.4368   -0.9005  -11.3258 C   0  0  0  0  0  0  0  0  0  0  0  0
  -25.9889   -1.1358   -9.9373 C   0  0  0  0  0  0  0  0  0  0  0  0
  -22.9457    0.2358  -14.0481 C   0  0  0  0  0  0  0  0  0  0  0  0
  -21.6784   -0.2617  -14.5046 C   0  0  0  0  0  0  0  0  0  0  0  0
  -20.7769    0.6964  -14.7657 N   0  0  0  0  0  0  0  0  0  0  0  0
  -21.4126    1.8314  -14.4366 N   0  0  0  0  0  0  0  0  0  0  0  0
  -20.7729    3.1196  -14.6187 C   0  0  0  0  0  0  0  0  0  0  0  0
  -22.6581    1.5978  -13.9087 C   0  0  0  0  0  0  0  0  0  0  0  0
  -28.7960   -0.0923   -5.6745 C   0  0  0  0  0  0  0  0  0  0  0  0
  -28.7265   -0.9483   -4.5852 C   0  0  0  0  0  0  0  0  0  0  0  0
  -28.2962   -2.2627   -4.7686 C   0  0  0  0  0  0  0  0  0  0  0  0
  -27.9670   -2.7316   -6.0571 C   0  0  0  0  0  0  0  0  0  0  0  0
  -28.0089   -1.9007   -7.1808 C   0  0  0  0  0  0  0  0  0  0  0  0
  -28.3979   -0.5550   -6.9576 C   0  0  0  0  0  0  0  0  0  0  0  0
  -30.6614    1.4105   -5.8118 C   0  0  0  0  0  0  0  0  0  0  0  0
  -29.2590    1.2067   -5.5955 O   0  0  0  0  0  0  0  0  0  0  0  0
  -28.1819   -3.1927   -3.7653 O   0  0  0  0  0  0  0  0  0  0  0  0
  -27.6061   -4.4439   -4.1183 C   0  0  0  0  0  0  0  0  0  0  0  0
  -27.6869   -3.9462   -8.6882 C   0  0  0  0  0  0  0  0  0  0  0  0
  -28.5464   -4.9293   -7.9102 C   0  0  0  0  0  0  0  0  0  0  0  0
  -29.2836   -5.7725   -7.2428 C   0  0  0  0  0  0  0  0  0  0  0  0
  -30.0648   -6.7433   -6.5023 C   0  0  0  0  0  0  0  0  0  0  0  0
  -31.0075   -7.3658   -7.4112 O   0  0  0  0  0  0  0  0  0  0  0  0
  -30.6477   -6.2515   -5.1501 C   0  0  0  0  0  0  0  0  0  0  0  0
  -30.2704   -7.5487   -4.5345 N   0  0  0  0  0  0  0  0  0  0  0  0
  -29.2570   -7.7223   -5.6075 C   0  0  0  0  0  0  0  0  0  0  0  0
  -31.4910   -6.6202   -7.8061 H   0  0  0  0  0  0  0  0  0  0  0  0
  -31.0188   -8.2427   -4.6068 H   0  0  0  0  0  0  0  0  0  0  0  0
 24 25  1  0  0  0
 25 18  1  0  0  0
 18 19  1  0  0  0
 18 23  2  0  0  0
 19 20  2  0  0  0
 20 26  1  0  0  0
 20 21  1  0  0  0
 26 27  1  0  0  0
 21 22  2  0  0  0
 22  1  1  0  0  0
 22 23  1  0  0  0
  1 28  1  0  0  0
  1  2  1  0  0  0
 28 29  1  0  0  0
 29 30  3  0  0  0
 30 31  1  0  0  0
 31 32  1  0  0  0
 31 33  1  0  0  0
 31 35  1  0  0  0
 32 36  1  0  0  0
 33 34  1  0  0  0
 34 35  1  0  0  0
 34 37  1  0  0  0
  2  3  1  0  0  0
  2 11  2  0  0  0
  3  4  2  0  0  0
  4  5  1  0  0  0
  5  6  1  0  0  0
  5 10  2  0  0  0
  6  7  2  0  0  0
  7  8  1  0  0  0
  8 12  1  0  0  0
  8  9  2  0  0  0
 12 13  1  0  0  0
 12 17  2  0  0  0
 13 14  2  0  0  0
 14 15  1  0  0  0
 15 16  1  0  0  0
 15 17  1  0  0  0
  9 10  1  0  0  0
 10 11  1  0  0  0
M  END
> <minimizedAffinity>
-9.32641

$$$$
