CHEMBL1968850


 19 21  0  0  0  0  0  0  0  0999 V2000
  -28.6374   -6.0894   -8.0093 O   0  0  0  0  0  0  0  0  0  0  0  0
  -28.7090   -5.3527   -7.0154 C   0  0  0  0  0  0  0  0  0  0  0  0
  -29.0595   -5.9403   -5.8295 N   0  0  0  0  0  0  0  0  0  0  0  0
  -29.8797   -5.3265   -4.8693 C   0  0  0  0  0  0  0  0  0  0  0  0
  -30.9892   -6.0653   -4.4362 C   0  0  0  0  0  0  0  0  0  0  0  0
  -31.9304   -5.4813   -3.5959 C   0  0  0  0  0  0  0  0  0  0  0  0
  -31.7336   -4.1832   -3.1367 C   0  0  0  0  0  0  0  0  0  0  0  0
  -30.5873   -3.4744   -3.5073 C   0  0  0  0  0  0  0  0  0  0  0  0
  -29.6472   -4.0351   -4.3848 C   0  0  0  0  0  0  0  0  0  0  0  0
  -28.5413   -3.2741   -4.7962 N   0  0  0  0  0  0  0  0  0  0  0  0
  -28.2393   -3.0169   -6.1354 C   0  0  0  0  0  0  0  0  0  0  0  0
  -27.8026   -1.7586   -6.3914 N   0  0  0  0  0  0  0  0  0  0  0  0
  -27.5930   -1.3286   -7.6779 N   0  0  0  0  0  0  0  0  0  0  0  0
  -27.8298   -2.1700   -8.6940 C   0  0  0  0  0  0  0  0  0  0  0  0
  -27.5807   -1.5336  -10.2614 Cl  0  0  0  0  0  0  0  0  0  0  0  0
  -28.2359   -3.4648   -8.4949 C   0  0  0  0  0  0  0  0  0  0  0  0
  -28.4199   -3.9131   -7.1786 C   0  0  0  0  0  0  0  0  0  0  0  0
  -29.2169   -6.9299   -5.9747 H   0  0  0  0  0  0  0  0  0  0  0  0
  -28.3945   -2.4195   -4.2647 H   0  0  0  0  0  0  0  0  0  0  0  0
  1  2  2  0  0  0
  2  3  1  0  0  0
  2 17  1  0  0  0
  3  4  1  0  0  0
  3 18  1  0  0  0
  4  5  1  0  0  0
  4  9  2  0  0  0
  5  6  2  0  0  0
  6  7  1  0  0  0
  7  8  2  0  0  0
  8  9  1  0  0  0
  9 10  1  0  0  0
 10 11  1  0  0  0
 10 19  1  0  0  0
 11 12  1  0  0  0
 11 17  2  0  0  0
 12 13  2  0  0  0
 13 14  1  0  0  0
 14 15  1  0  0  0
 14 16  2  0  0  0
 16 17  1  0  0  0
M  END
> <minimizedAffinity>
-7.66536

$$$$
