CHEMBL3818017


 28 31  0  0  0  0  0  0  0  0999 V2000
  -29.8448   -3.8058   -3.7745 C   0  0  0  0  0  0  0  0  0  0  0  0
  -31.0348   -3.5495   -3.2212 N   0  0  0  0  0  0  0  0  0  0  0  0
  -31.9278   -4.5579   -3.2290 C   0  0  0  0  0  0  0  0  0  0  0  0
  -31.6696   -5.8111   -3.7367 C   0  0  0  0  0  0  0  0  0  0  0  0
  -30.4049   -6.0123   -4.2383 C   0  0  0  0  0  0  0  0  0  0  0  0
  -29.5197   -5.0078   -4.2641 N   0  0  0  0  0  0  0  0  0  0  0  0
  -28.9148   -2.7656   -3.8092 N   0  0  0  0  0  0  0  0  0  0  0  0
  -28.7094   -2.4506   -2.8728 H   0  0  0  0  0  0  0  0  0  0  0  0
  -27.7605   -1.5433   -7.1336 C   0  0  0  0  0  0  0  0  0  0  0  0
  -27.9833   -0.1725   -7.0200 C   0  0  0  0  0  0  0  0  0  0  0  0
  -28.5234    0.3455   -5.8482 C   0  0  0  0  0  0  0  0  0  0  0  0
  -28.8300   -0.5036   -4.7853 C   0  0  0  0  0  0  0  0  0  0  0  0
  -28.5869   -1.8812   -4.8518 C   0  0  0  0  0  0  0  0  0  0  0  0
  -28.0657   -2.3872   -6.0535 C   0  0  0  0  0  0  0  0  0  0  0  0
  -27.7436   -1.7227   -9.5028 C   0  0  0  0  0  0  0  0  0  0  0  0
  -27.2563   -2.1721   -8.2421 O   0  0  0  0  0  0  0  0  0  0  0  0
  -30.0313   -7.3069   -4.6785 N   0  0  0  0  0  0  0  0  0  0  0  0
  -30.5645   -8.0146   -4.1856 H   0  0  0  0  0  0  0  0  0  0  0  0
  -29.7214   -7.7072   -6.0061 C   0  0  0  0  0  0  0  0  0  0  0  0
  -28.9188   -6.9282   -6.8586 C   0  0  0  0  0  0  0  0  0  0  0  0
  -28.6355   -7.2954   -8.1790 C   0  0  0  0  0  0  0  0  0  0  0  0
  -29.1257   -8.5261   -8.6058 C   0  0  0  0  0  0  0  0  0  0  0  0
  -29.0602   -9.1577   -9.8174 N   0  0  0  0  0  0  0  0  0  0  0  0
  -29.5812  -10.3983   -9.8184 N   0  0  0  0  0  0  0  0  0  0  0  0
  -30.0351  -10.5380   -8.5664 C   0  0  0  0  0  0  0  0  0  0  0  0
  -29.8244   -9.3882   -7.7712 C   0  0  0  0  0  0  0  0  0  0  0  0
  -30.1256   -8.9801   -6.4543 C   0  0  0  0  0  0  0  0  0  0  0  0
  -28.6723   -8.7948  -10.6807 H   0  0  0  0  0  0  0  0  0  0  0  0
 15 16  1  0  0  0
 16  9  1  0  0  0
  9 10  1  0  0  0
  9 14  2  0  0  0
 10 11  2  0  0  0
 11 12  1  0  0  0
 12 13  2  0  0  0
 13  7  1  0  0  0
 13 14  1  0  0  0
  7  1  1  0  0  0
  7  8  1  0  0  0
  1  2  1  0  0  0
  1  6  2  0  0  0
  2  3  2  0  0  0
  3  4  1  0  0  0
  4  5  2  0  0  0
  5 17  1  0  0  0
  5  6  1  0  0  0
 17 19  1  0  0  0
 17 18  1  0  0  0
 19 20  1  0  0  0
 19 27  2  0  0  0
 20 21  2  0  0  0
 21 22  1  0  0  0
 22 23  1  0  0  0
 22 26  2  0  0  0
 23 24  1  0  0  0
 23 28  1  0  0  0
 24 25  2  0  0  0
 25 26  1  0  0  0
 26 27  1  0  0  0
M  END
> <minimizedAffinity>
-8.60855

$$$$
