CHEMBL1969264


 26 29  0  0  0  0  0  0  0  0999 V2000
  -29.5717   -8.2049   -7.8374 C   0  0  0  0  0  0  0  0  0  0  0  0
  -30.4567   -8.4252   -6.7869 C   0  0  0  0  0  0  0  0  0  0  0  0
  -30.7467   -7.3811   -5.9119 C   0  0  0  0  0  0  0  0  0  0  0  0
  -30.1843   -6.1262   -6.0687 C   0  0  0  0  0  0  0  0  0  0  0  0
  -30.5494   -5.1656   -5.2031 N   0  0  0  0  0  0  0  0  0  0  0  0
  -29.9688   -3.9856   -5.4753 C   0  0  0  0  0  0  0  0  0  0  0  0
  -30.1681   -2.8239   -4.7870 N   0  0  0  0  0  0  0  0  0  0  0  0
  -29.4324   -1.8032   -5.3485 C   0  0  0  0  0  0  0  0  0  0  0  0
  -29.3337   -0.4553   -4.9828 C   0  0  0  0  0  0  0  0  0  0  0  0
  -28.5051    0.3650   -5.7547 C   0  0  0  0  0  0  0  0  0  0  0  0
  -27.8057   -0.1431   -6.8479 C   0  0  0  0  0  0  0  0  0  0  0  0
  -27.9112   -1.4939   -7.1993 C   0  0  0  0  0  0  0  0  0  0  0  0
  -28.7371   -2.3455   -6.4365 C   0  0  0  0  0  0  0  0  0  0  0  0
  -29.0761   -3.7255   -6.5037 C   0  0  0  0  0  0  0  0  0  0  0  0
  -28.6897   -4.7074   -7.3634 N   0  0  0  0  0  0  0  0  0  0  0  0
  -29.2615   -5.9001   -7.1347 C   0  0  0  0  0  0  0  0  0  0  0  0
  -28.9589   -6.9551   -7.9846 C   0  0  0  0  0  0  0  0  0  0  0  0
  -30.7814   -2.7399   -3.9910 H   0  0  0  0  0  0  0  0  0  0  0  0
  -28.2773   -8.9601   -9.7518 N   0  0  0  0  0  0  0  0  0  0  0  0
  -29.2393   -9.2835   -8.8006 C   0  0  0  0  0  0  0  0  0  0  0  0
  -29.7993  -10.3612   -8.6916 O   0  0  0  0  0  0  0  0  0  0  0  0
  -27.7946   -8.0798   -9.6766 H   0  0  0  0  0  0  0  0  0  0  0  0
  -26.7761   -9.2313  -11.6851 C   0  0  0  0  0  0  0  0  0  0  0  0
  -27.8089   -9.9111  -10.7734 C   0  0  0  0  0  0  0  0  0  0  0  0
  -28.9862  -10.3965  -11.6324 C   0  0  0  0  0  0  0  0  0  0  0  0
  -27.1206  -11.1141  -10.0970 C   0  0  0  0  0  0  0  0  0  0  0  0
 23 24  1  0  0  0
 24 25  1  0  0  0
 24 26  1  0  0  0
 24 19  1  0  0  0
 19 20  1  0  0  0
 19 22  1  0  0  0
 20 21  2  0  0  0
 20  1  1  0  0  0
  1  2  1  0  0  0
  1 17  2  0  0  0
  2  3  2  0  0  0
  3  4  1  0  0  0
  4  5  1  0  0  0
  4 16  2  0  0  0
  5  6  2  0  0  0
  6  7  1  0  0  0
  6 14  1  0  0  0
  7  8  1  0  0  0
  7 18  1  0  0  0
  8  9  1  0  0  0
  8 13  2  0  0  0
  9 10  2  0  0  0
 10 11  1  0  0  0
 11 12  2  0  0  0
 12 13  1  0  0  0
 13 14  1  0  0  0
 14 15  2  0  0  0
 15 16  1  0  0  0
 16 17  1  0  0  0
M  END
> <minimizedAffinity>
-9.10793

$$$$
