CHEMBL395427


 38 42  0  0  0  0  0  0  0  0999 V2000
  -14.1327   -1.4725  -13.3490 C   0  0  0  0  0  0  0  0  0  0  0  0
  -12.7630   -1.5334  -13.6657 C   0  0  0  0  0  0  0  0  0  0  0  0
  -12.1520   -0.6294  -14.5571 C   0  0  0  0  0  0  0  0  0  0  0  0
  -12.8976    0.3587  -15.1844 C   0  0  0  0  0  0  0  0  0  0  0  0
  -14.2445    0.3862  -14.9078 C   0  0  0  0  0  0  0  0  0  0  0  0
  -14.8948   -0.5104  -14.0093 C   0  0  0  0  0  0  0  0  0  0  0  0
  -16.4036   -0.2191  -13.8843 C   0  0  0  0  0  0  0  0  0  0  0  0
  -16.4806    0.9420  -14.8197 C   0  0  0  0  0  0  0  0  0  0  0  0
  -15.2477    1.2686  -15.3919 C   0  0  0  0  0  0  0  0  0  0  0  0
  -15.2818    2.2944  -16.2288 N   0  0  0  0  0  0  0  0  0  0  0  0
  -16.5918    2.6367  -16.1873 N   0  0  0  0  0  0  0  0  0  0  0  0
  -17.3624    1.8482  -15.3522 C   0  0  0  0  0  0  0  0  0  0  0  0
  -16.8934    3.4236  -16.7497 H   0  0  0  0  0  0  0  0  0  0  0  0
  -18.8241    2.0032  -15.1209 C   0  0  0  0  0  0  0  0  0  0  0  0
  -19.4456    3.2344  -15.1088 C   0  0  0  0  0  0  0  0  0  0  0  0
  -21.1250    3.1138  -14.8127 S   0  0  0  0  0  0  0  0  0  0  0  0
  -21.0383    1.4150  -14.6875 C   0  0  0  0  0  0  0  0  0  0  0  0
  -19.7540    0.9456  -14.8814 C   0  0  0  0  0  0  0  0  0  0  0  0
  -22.1767    0.6147  -14.3783 C   0  0  0  0  0  0  0  0  0  0  0  0
  -23.1402   -0.0745  -14.1999 C   0  0  0  0  0  0  0  0  0  0  0  0
  -24.3499   -0.8974  -14.0916 C   0  0  0  0  0  0  0  0  0  0  0  0
  -24.3062   -1.6781  -12.8948 O   0  0  0  0  0  0  0  0  0  0  0  0
  -25.4471   -1.6238  -12.1362 C   0  0  0  0  0  0  0  0  0  0  0  0
  -25.4714   -1.5508  -10.7413 C   0  0  0  0  0  0  0  0  0  0  0  0
  -26.6887   -1.5221  -10.0581 C   0  0  0  0  0  0  0  0  0  0  0  0
  -27.8876   -1.5486  -10.7658 C   0  0  0  0  0  0  0  0  0  0  0  0
  -27.8700   -1.5818  -12.1591 C   0  0  0  0  0  0  0  0  0  0  0  0
  -26.6517   -1.6104  -12.8427 C   0  0  0  0  0  0  0  0  0  0  0  0
  -15.5412   -3.4195  -12.6982 C   0  0  0  0  0  0  0  0  0  0  0  0
  -15.8444   -3.8084  -13.8243 O   0  0  0  0  0  0  0  0  0  0  0  0
  -14.7247   -2.3364  -12.3953 N   0  0  0  0  0  0  0  0  0  0  0  0
  -14.3659   -2.2855  -11.4501 H   0  0  0  0  0  0  0  0  0  0  0  0
  -16.0426   -4.1821  -11.5004 C   0  0  0  0  0  0  0  0  0  0  0  0
  -14.8992   -4.6720  -10.6725 C   0  0  0  0  0  0  0  0  0  0  0  0
  -14.8469   -4.5745   -9.4516 O   0  0  0  0  0  0  0  0  0  0  0  0
  -13.9404   -5.2275  -11.4617 O   0  0  0  0  0  0  0  0  0  0  0  0
  -14.4367   -7.2790  -12.5736 C   0  0  0  0  0  0  0  0  0  0  0  0
  -13.7980   -6.6509  -11.3475 C   0  0  0  0  0  0  0  0  0  0  0  0
 37 38  1  0  0  0
 38 36  1  0  0  0
 36 34  1  0  0  0
 34 35  2  0  0  0
 34 33  1  0  0  0
 33 29  1  0  0  0
 29 30  2  0  0  0
 29 31  1  0  0  0
 31  1  1  0  0  0
 31 32  1  0  0  0
  1  2  1  0  0  0
  1  6  2  0  0  0
  2  3  2  0  0  0
  3  4  1  0  0  0
  4  5  2  0  0  0
  5  6  1  0  0  0
  5  9  1  0  0  0
  6  7  1  0  0  0
  7  8  1  0  0  0
  8  9  1  0  0  0
  8 12  2  0  0  0
  9 10  2  0  0  0
 10 11  1  0  0  0
 11 12  1  0  0  0
 11 13  1  0  0  0
 12 14  1  0  0  0
 14 15  2  0  0  0
 14 18  1  0  0  0
 15 16  1  0  0  0
 16 17  1  0  0  0
 17 19  1  0  0  0
 17 18  2  0  0  0
 19 20  3  0  0  0
 20 21  1  0  0  0
 21 22  1  0  0  0
 22 23  1  0  0  0
 23 24  1  0  0  0
 23 28  2  0  0  0
 24 25  2  0  0  0
 25 26  1  0  0  0
 26 27  2  0  0  0
 27 28  1  0  0  0
M  END
> <minimizedAffinity>
-9.54208

$$$$
