CHEMBL432903


 41 44  0  0  0  0  0  0  0  0999 V2000
  -28.7884   -8.0049   -7.0427 C   0  0  0  0  0  0  0  0  0  0  0  0
  -29.3617   -8.9972   -7.7397 C   0  0  0  0  0  0  0  0  0  0  0  0
  -30.8048   -9.2520   -8.0846 C   0  0  0  0  0  0  0  0  0  0  0  0
  -31.7835   -8.6269   -7.7253 O   0  0  0  0  0  0  0  0  0  0  0  0
  -30.7897  -10.3565   -8.9134 N   0  0  0  0  0  0  0  0  0  0  0  0
  -29.5046  -10.8426   -9.0952 C   0  0  0  0  0  0  0  0  0  0  0  0
  -29.2239  -11.9150   -9.8304 N   0  0  0  0  0  0  0  0  0  0  0  0
  -27.9190  -12.2134   -9.8469 C   0  0  0  0  0  0  0  0  0  0  0  0
  -26.9379  -11.5484   -9.2013 N   0  0  0  0  0  0  0  0  0  0  0  0
  -27.2840  -10.4815   -8.4499 C   0  0  0  0  0  0  0  0  0  0  0  0
  -28.5963  -10.0742   -8.3910 C   0  0  0  0  0  0  0  0  0  0  0  0
  -31.6056  -10.7752   -9.3280 H   0  0  0  0  0  0  0  0  0  0  0  0
  -30.0120   -4.8713   -5.5318 C   0  0  0  0  0  0  0  0  0  0  0  0
  -30.6520   -5.8666   -4.8011 C   0  0  0  0  0  0  0  0  0  0  0  0
  -31.6762   -5.8415   -3.7229 C   0  0  0  0  0  0  0  0  0  0  0  0
  -30.2324   -7.0831   -5.2917 N   0  0  0  0  0  0  0  0  0  0  0  0
  -29.3598   -6.9165   -6.3327 C   0  0  0  0  0  0  0  0  0  0  0  0
  -29.1833   -5.5482   -6.4996 C   0  0  0  0  0  0  0  0  0  0  0  0
  -28.3083   -4.8622   -7.5004 C   0  0  0  0  0  0  0  0  0  0  0  0
  -30.5683   -7.9785   -4.9478 H   0  0  0  0  0  0  0  0  0  0  0  0
  -29.5296   -2.8073   -4.3828 N   0  0  0  0  0  0  0  0  0  0  0  0
  -30.1760   -3.4173   -5.4324 C   0  0  0  0  0  0  0  0  0  0  0  0
  -30.8220   -2.7762   -6.2581 O   0  0  0  0  0  0  0  0  0  0  0  0
  -28.7684   -3.2996   -3.9317 H   0  0  0  0  0  0  0  0  0  0  0  0
  -29.6113   -1.3720   -4.2237 C   0  0  0  0  0  0  0  0  0  0  0  0
  -28.4099   -0.6252   -4.8289 C   0  0  0  0  0  0  0  0  0  0  0  0
  -28.7529    0.5253   -5.6988 N   0  0  0  0  0  0  0  0  0  0  0  0
  -27.7966   -1.1162   -7.3683 C   0  0  0  0  0  0  0  0  0  0  0  0
  -28.4570    0.2360   -7.1149 C   0  0  0  0  0  0  0  0  0  0  0  0
  -30.1396    0.9683   -5.4607 C   0  0  0  0  0  0  0  0  0  0  0  0
  -30.8160    1.7439   -6.5909 C   0  0  0  0  0  0  0  0  0  0  0  0
  -26.2971   -9.8161   -7.6919 N   0  0  0  0  0  0  0  0  0  0  0  0
  -26.4632   -8.8142   -7.7096 H   0  0  0  0  0  0  0  0  0  0  0  0
  -25.6861  -10.2543   -6.5011 C   0  0  0  0  0  0  0  0  0  0  0  0
  -26.4287  -10.2768   -5.3091 C   0  0  0  0  0  0  0  0  0  0  0  0
  -25.8318  -10.6512   -4.1044 C   0  0  0  0  0  0  0  0  0  0  0  0
  -24.4799  -10.9785   -4.0771 C   0  0  0  0  0  0  0  0  0  0  0  0
  -23.9251  -11.3268   -2.9077 F   0  0  0  0  0  0  0  0  0  0  0  0
  -23.7201  -10.9298   -5.2415 C   0  0  0  0  0  0  0  0  0  0  0  0
  -22.0384  -11.2971   -5.2099 Cl  0  0  0  0  0  0  0  0  0  0  0  0
  -24.3210  -10.5669   -6.4474 C   0  0  0  0  0  0  0  0  0  0  0  0
 28 29  1  0  0  0
 29 27  1  0  0  0
 27 30  1  0  0  0
 27 26  1  0  0  0
 30 31  1  0  0  0
 26 25  1  0  0  0
 25 21  1  0  0  0
 21 22  1  0  0  0
 21 24  1  0  0  0
 22 23  2  0  0  0
 22 13  1  0  0  0
 13 14  2  0  0  0
 13 18  1  0  0  0
 14 15  1  0  0  0
 14 16  1  0  0  0
 16 17  1  0  0  0
 16 20  1  0  0  0
 17  1  1  0  0  0
 17 18  2  0  0  0
  1  2  2  0  0  0
  2  3  1  0  0  0
  2 11  1  0  0  0
  3  4  2  0  0  0
  3  5  1  0  0  0
  5  6  1  0  0  0
  5 12  1  0  0  0
  6  7  1  0  0  0
  6 11  2  0  0  0
  7  8  2  0  0  0
  8  9  1  0  0  0
  9 10  2  0  0  0
 10 32  1  0  0  0
 10 11  1  0  0  0
 32 34  1  0  0  0
 32 33  1  0  0  0
 34 35  1  0  0  0
 34 41  2  0  0  0
 35 36  2  0  0  0
 36 37  1  0  0  0
 37 38  1  0  0  0
 37 39  2  0  0  0
 39 40  1  0  0  0
 39 41  1  0  0  0
 18 19  1  0  0  0
M  END
> <minimizedAffinity>
-8.34795

$$$$
