CHEMBL3741484


 41 45  0  0  0  0  0  0  0  0999 V2000
  -14.0561   -2.5702  -12.7735 C   0  0  0  0  0  0  0  0  0  0  0  0
  -15.1094   -2.2695  -11.8537 C   0  0  0  0  0  0  0  0  0  0  0  0
  -15.9383   -1.1810  -12.0446 C   0  0  0  0  0  0  0  0  0  0  0  0
  -15.4821   -0.1996  -12.8676 C   0  0  0  0  0  0  0  0  0  0  0  0
  -14.1774   -0.3294  -13.3076 C   0  0  0  0  0  0  0  0  0  0  0  0
  -13.4611    0.7897  -13.6262 C   0  0  0  0  0  0  0  0  0  0  0  0
  -13.6634    1.0802  -14.9334 C   0  0  0  0  0  0  0  0  0  0  0  0
  -13.4122   -0.0039  -15.7705 C   0  0  0  0  0  0  0  0  0  0  0  0
  -13.2541   -1.3281  -15.1537 C   0  0  0  0  0  0  0  0  0  0  0  0
  -13.7462   -1.5479  -13.7692 C   0  0  0  0  0  0  0  0  0  0  0  0
  -13.7276   -5.0009  -13.3890 N   0  0  0  0  0  0  0  0  0  0  0  0
  -13.5392   -3.9574  -12.5089 C   0  0  0  0  0  0  0  0  0  0  0  0
  -12.9183   -4.0979  -11.4516 O   0  0  0  0  0  0  0  0  0  0  0  0
  -14.1143   -4.8051  -14.2998 H   0  0  0  0  0  0  0  0  0  0  0  0
  -12.1883  -10.4793  -12.3787 C   0  0  0  0  0  0  0  0  0  0  0  0
  -12.5957   -9.0593  -12.6325 C   0  0  0  0  0  0  0  0  0  0  0  0
  -13.7632   -8.5522  -12.0492 C   0  0  0  0  0  0  0  0  0  0  0  0
  -14.1420   -7.2214  -12.2873 C   0  0  0  0  0  0  0  0  0  0  0  0
  -13.3802   -6.3586  -13.0956 C   0  0  0  0  0  0  0  0  0  0  0  0
  -12.2074   -6.8748  -13.6486 C   0  0  0  0  0  0  0  0  0  0  0  0
  -11.8278   -8.2102  -13.4153 C   0  0  0  0  0  0  0  0  0  0  0  0
  -14.1717    2.3367  -14.9759 O   0  0  0  0  0  0  0  0  0  0  0  0
  -15.4509    2.6537  -15.3341 C   0  0  0  0  0  0  0  0  0  0  0  0
  -15.6108    3.7029  -16.2110 C   0  0  0  0  0  0  0  0  0  0  0  0
  -16.8818    3.8595  -16.6926 C   0  0  0  0  0  0  0  0  0  0  0  0
  -17.8942    3.0515  -16.3442 N   0  0  0  0  0  0  0  0  0  0  0  0
  -17.5980    2.0308  -15.5225 C   0  0  0  0  0  0  0  0  0  0  0  0
  -16.3985    1.7927  -15.0027 N   0  0  0  0  0  0  0  0  0  0  0  0
  -18.6411    1.1773  -15.1860 N   0  0  0  0  0  0  0  0  0  0  0  0
  -18.2897    0.2502  -15.0031 H   0  0  0  0  0  0  0  0  0  0  0  0
  -19.9629    1.4564  -14.8172 C   0  0  0  0  0  0  0  0  0  0  0  0
  -20.2765    2.7729  -14.4781 C   0  0  0  0  0  0  0  0  0  0  0  0
  -21.5640    3.1230  -14.0788 C   0  0  0  0  0  0  0  0  0  0  0  0
  -22.5636    2.1544  -14.0012 C   0  0  0  0  0  0  0  0  0  0  0  0
  -22.2786    0.8165  -14.2975 C   0  0  0  0  0  0  0  0  0  0  0  0
  -20.9697    0.4812  -14.6905 C   0  0  0  0  0  0  0  0  0  0  0  0
  -23.3327   -0.2456  -14.1199 C   0  0  0  0  0  0  0  0  0  0  0  0
  -23.7501   -0.5455  -12.4032 S   0  0  0  0  0  0  0  0  0  0  0  0
  -25.1090   -1.6866  -12.4333 C   0  0  0  0  0  0  0  0  0  0  0  0
  -22.6272   -1.2668  -11.8249 O   0  0  0  0  0  0  0  0  0  0  0  0
  -24.2117    0.6836  -11.7849 O   0  0  0  0  0  0  0  0  0  0  0  0
 15 16  1  0  0  0
 16 17  1  0  0  0
 16 21  2  0  0  0
 17 18  2  0  0  0
 18 19  1  0  0  0
 19 11  1  0  0  0
 19 20  2  0  0  0
 11 12  1  0  0  0
 11 14  1  0  0  0
 12 13  2  0  0  0
 12  1  1  0  0  0
  1  2  1  0  0  0
  1 10  2  0  0  0
  2  3  2  0  0  0
  3  4  1  0  0  0
  4  5  2  0  0  0
  5  6  1  0  0  0
  5 10  1  0  0  0
  6  7  2  0  0  0
  7 22  1  0  0  0
  7  8  1  0  0  0
 22 23  1  0  0  0
 23 24  1  0  0  0
 23 28  2  0  0  0
 24 25  2  0  0  0
 25 26  1  0  0  0
 26 27  2  0  0  0
 27 29  1  0  0  0
 27 28  1  0  0  0
 29 31  1  0  0  0
 29 30  1  0  0  0
 31 32  1  0  0  0
 31 36  2  0  0  0
 32 33  2  0  0  0
 33 34  1  0  0  0
 34 35  2  0  0  0
 35 37  1  0  0  0
 35 36  1  0  0  0
 37 38  1  0  0  0
 38 39  1  0  0  0
 38 40  2  0  0  0
 38 41  2  0  0  0
  8  9  2  0  0  0
  9 10  1  0  0  0
 20 21  1  0  0  0
M  END
> <minimizedAffinity>
-9.38272

$$$$
