CHEMBL247272


 32 36  0  0  0  0  0  0  0  0999 V2000
  -17.2388    2.5857  -15.7124 C   0  0  0  0  0  0  0  0  0  0  0  0
  -17.0378    3.7121  -16.4570 O   0  0  0  0  0  0  0  0  0  0  0  0
  -15.6976    3.9055  -16.5624 C   0  0  0  0  0  0  0  0  0  0  0  0
  -15.1731    4.9488  -17.2201 N   0  0  0  0  0  0  0  0  0  0  0  0
  -13.8437    4.9269  -17.1872 C   0  0  0  0  0  0  0  0  0  0  0  0
  -13.0492    4.0112  -16.6042 N   0  0  0  0  0  0  0  0  0  0  0  0
  -13.6167    2.9871  -15.9272 C   0  0  0  0  0  0  0  0  0  0  0  0
  -15.0140    2.8999  -15.8950 C   0  0  0  0  0  0  0  0  0  0  0  0
  -16.0170    2.0376  -15.3259 C   0  0  0  0  0  0  0  0  0  0  0  0
  -21.1463    1.6090  -14.3604 C   0  0  0  0  0  0  0  0  0  0  0  0
  -20.3120    0.6059  -14.8460 C   0  0  0  0  0  0  0  0  0  0  0  0
  -19.0797    0.9381  -15.4098 C   0  0  0  0  0  0  0  0  0  0  0  0
  -18.6393    2.2693  -15.4312 C   0  0  0  0  0  0  0  0  0  0  0  0
  -19.5211    3.2755  -15.0122 C   0  0  0  0  0  0  0  0  0  0  0  0
  -20.7684    2.9449  -14.4776 C   0  0  0  0  0  0  0  0  0  0  0  0
  -15.8566    0.8918  -14.4217 C   0  0  0  0  0  0  0  0  0  0  0  0
  -16.3912    0.8944  -13.1242 C   0  0  0  0  0  0  0  0  0  0  0  0
  -16.2251   -0.1998  -12.2705 C   0  0  0  0  0  0  0  0  0  0  0  0
  -15.4377   -1.2760  -12.6649 C   0  0  0  0  0  0  0  0  0  0  0  0
  -14.8782   -1.2879  -13.9369 C   0  0  0  0  0  0  0  0  0  0  0  0
  -15.1351   -0.2382  -14.8226 C   0  0  0  0  0  0  0  0  0  0  0  0
  -12.7942    1.9618  -15.4511 N   0  0  0  0  0  0  0  0  0  0  0  0
  -13.3864    1.1339  -15.4986 H   0  0  0  0  0  0  0  0  0  0  0  0
  -11.6036    1.6974  -16.2653 C   0  0  0  0  0  0  0  0  0  0  0  0
  -11.8104    0.3529  -17.0052 C   0  0  0  0  0  0  0  0  0  0  0  0
  -11.5207    0.3843  -18.4500 N   0  0  0  0  0  0  0  0  0  0  0  0
  -12.2514    1.4929  -19.1040 C   0  0  0  0  0  0  0  0  0  0  0  0
  -13.7733    1.2600  -19.2495 C   0  0  0  0  0  0  0  0  0  0  0  0
  -14.1095   -0.0014  -19.9310 N   0  0  0  0  0  0  0  0  0  0  0  0
  -13.3830   -1.1260  -19.3146 C   0  0  0  0  0  0  0  0  0  0  0  0
  -11.8681   -0.8765  -19.1341 C   0  0  0  0  0  0  0  0  0  0  0  0
  -13.8027    0.0753  -20.9005 H   0  0  0  0  0  0  0  0  0  0  0  0
 10 11  1  0  0  0
 10 15  2  0  0  0
 11 12  2  0  0  0
 12 13  1  0  0  0
 13  1  1  0  0  0
 13 14  2  0  0  0
  1  2  1  0  0  0
  1  9  2  0  0  0
  2  3  1  0  0  0
  3  4  1  0  0  0
  3  8  2  0  0  0
  4  5  2  0  0  0
  5  6  1  0  0  0
  6  7  2  0  0  0
  7 22  1  0  0  0
  7  8  1  0  0  0
 22 24  1  0  0  0
 22 23  1  0  0  0
 24 25  1  0  0  0
 25 26  1  0  0  0
 26 27  1  0  0  0
 26 31  1  0  0  0
 27 28  1  0  0  0
 28 29  1  0  0  0
 29 30  1  0  0  0
 29 32  1  0  0  0
 30 31  1  0  0  0
  8  9  1  0  0  0
  9 16  1  0  0  0
 16 17  1  0  0  0
 16 21  2  0  0  0
 17 18  2  0  0  0
 18 19  1  0  0  0
 19 20  2  0  0  0
 20 21  1  0  0  0
 14 15  1  0  0  0
M  END
> <minimizedAffinity>
-7.21676

$$$$
