CHEMBL4551715


 17 19  0  0  0  0  0  0  0  0999 V2000
  -22.3798    1.0732  -13.8857 C   0  0  0  0  0  0  0  0  0  0  0  0
  -22.6044    2.4405  -13.9522 C   0  0  0  0  0  0  0  0  0  0  0  0
  -21.6676    3.3229  -14.3649 N   0  0  0  0  0  0  0  0  0  0  0  0
  -20.4823    2.8004  -14.7209 C   0  0  0  0  0  0  0  0  0  0  0  0
  -19.4806    3.6470  -15.1710 C   0  0  0  0  0  0  0  0  0  0  0  0
  -18.2382    3.1495  -15.5611 C   0  0  0  0  0  0  0  0  0  0  0  0
  -18.0015    1.7815  -15.4947 C   0  0  0  0  0  0  0  0  0  0  0  0
  -16.4760    1.1551  -15.9812 Cl  0  0  0  0  0  0  0  0  0  0  0  0
  -18.9953    0.9170  -15.0423 C   0  0  0  0  0  0  0  0  0  0  0  0
  -20.2356    1.4033  -14.6535 C   0  0  0  0  0  0  0  0  0  0  0  0
  -21.1817    0.5422  -14.2317 N   0  0  0  0  0  0  0  0  0  0  0  0
  -25.6432   -1.4410  -11.1220 C   0  0  0  0  0  0  0  0  0  0  0  0
  -24.8630   -0.9334  -12.2220 N   0  0  0  0  0  0  0  0  0  0  0  0
  -23.9160    0.0461  -12.1817 C   0  0  0  0  0  0  0  0  0  0  0  0
  -23.4234    0.1621  -13.4653 C   0  0  0  0  0  0  0  0  0  0  0  0
  -24.1521   -0.8021  -14.1974 C   0  0  0  0  0  0  0  0  0  0  0  0
  -25.0341   -1.4638  -13.4467 N   0  0  0  0  0  0  0  0  0  0  0  0
 12 13  1  0  0  0
 13 14  1  0  0  0
 13 17  1  0  0  0
 14 15  2  0  0  0
 15  1  1  0  0  0
 15 16  1  0  0  0
  1  2  1  0  0  0
  1 11  2  0  0  0
  2  3  2  0  0  0
  3  4  1  0  0  0
  4  5  1  0  0  0
  4 10  2  0  0  0
  5  6  2  0  0  0
  6  7  1  0  0  0
  7  8  1  0  0  0
  7  9  2  0  0  0
  9 10  1  0  0  0
 10 11  1  0  0  0
 16 17  2  0  0  0
M  END
> <minimizedAffinity>
-8.26071

$$$$
