CHEMBL3671486


 38 40  0  0  0  0  0  0  0  0999 V2000
  -27.9512   -3.4868   -8.0183 C   0  0  0  0  0  0  0  0  0  0  0  0
  -28.5454   -3.2220   -6.7821 C   0  0  0  0  0  0  0  0  0  0  0  0
  -28.6390   -1.8957   -6.2965 C   0  0  0  0  0  0  0  0  0  0  0  0
  -29.1669   -1.5384   -5.0426 C   0  0  0  0  0  0  0  0  0  0  0  0
  -29.2683   -0.2577   -4.6434 N   0  0  0  0  0  0  0  0  0  0  0  0
  -28.8006    0.6646   -5.4867 C   0  0  0  0  0  0  0  0  0  0  0  0
  -28.2655    0.4384   -6.6964 N   0  0  0  0  0  0  0  0  0  0  0  0
  -28.1911   -0.8359   -7.0915 C   0  0  0  0  0  0  0  0  0  0  0  0
  -27.6595   -1.1181   -8.3480 C   0  0  0  0  0  0  0  0  0  0  0  0
  -27.5506   -2.4238   -8.8405 C   0  0  0  0  0  0  0  0  0  0  0  0
  -28.6489   -5.7767   -7.9862 C   0  0  0  0  0  0  0  0  0  0  0  0
  -29.7002   -5.5418   -7.4046 O   0  0  0  0  0  0  0  0  0  0  0  0
  -27.6908   -4.8374   -8.3436 N   0  0  0  0  0  0  0  0  0  0  0  0
  -27.3256   -5.0070   -9.2740 H   0  0  0  0  0  0  0  0  0  0  0  0
  -28.7326   -8.2214   -7.7867 C   0  0  0  0  0  0  0  0  0  0  0  0
  -28.2882   -7.1436   -8.4453 C   0  0  0  0  0  0  0  0  0  0  0  0
  -29.5659   -2.5582   -4.1476 N   0  0  0  0  0  0  0  0  0  0  0  0
  -30.4627   -2.3240   -3.7234 H   0  0  0  0  0  0  0  0  0  0  0  0
  -29.3767   -3.9500   -4.2705 C   0  0  0  0  0  0  0  0  0  0  0  0
  -28.0995   -4.5226   -4.2919 C   0  0  0  0  0  0  0  0  0  0  0  0
  -27.9340   -5.9066   -4.1777 C   0  0  0  0  0  0  0  0  0  0  0  0
  -29.0506   -6.7309   -4.0474 C   0  0  0  0  0  0  0  0  0  0  0  0
  -28.8157   -8.5843   -3.7616 Br  0  0  0  0  0  0  0  0  0  0  0  0
  -30.3324   -6.1930   -4.0793 C   0  0  0  0  0  0  0  0  0  0  0  0
  -30.4806   -4.8127   -4.1824 C   0  0  0  0  0  0  0  0  0  0  0  0
  -31.7190   -4.2933   -4.1655 F   0  0  0  0  0  0  0  0  0  0  0  0
  -27.0752   -2.4978  -10.1316 O   0  0  0  0  0  0  0  0  0  0  0  0
  -27.6431   -1.5605  -11.0456 C   0  0  0  0  0  0  0  0  0  0  0  0
  -26.9027   -1.5522  -12.3868 C   0  0  0  0  0  0  0  0  0  0  0  0
  -25.4084   -1.6162  -12.0879 C   0  0  0  0  0  0  0  0  0  0  0  0
  -24.5408   -1.1958  -13.1607 N   0  0  0  0  0  0  0  0  0  0  0  0
  -23.1996   -0.9962  -12.8697 C   0  0  0  0  0  0  0  0  0  0  0  0
  -22.7020   -1.2673  -11.7779 O   0  0  0  0  0  0  0  0  0  0  0  0
  -24.8986   -0.6322  -13.9276 H   0  0  0  0  0  0  0  0  0  0  0  0
  -22.3626   -0.4589  -14.0295 C   0  0  0  0  0  0  0  0  0  0  0  0
  -21.7803    0.8727  -13.7306 N   0  0  0  0  0  0  0  0  0  0  0  0
  -20.7386    1.2154  -14.7092 C   0  0  0  0  0  0  0  0  0  0  0  0
  -22.8519    1.8754  -13.8073 C   0  0  0  0  0  0  0  0  0  0  0  0
 15 16  2  0  0  0
 16 11  1  0  0  0
 11 12  2  0  0  0
 11 13  1  0  0  0
 13  1  1  0  0  0
 13 14  1  0  0  0
  1  2  1  0  0  0
  1 10  2  0  0  0
  2  3  2  0  0  0
  3  4  1  0  0  0
  3  8  1  0  0  0
  4 17  1  0  0  0
  4  5  2  0  0  0
 17 19  1  0  0  0
 17 18  1  0  0  0
 19 20  1  0  0  0
 19 25  2  0  0  0
 20 21  2  0  0  0
 21 22  1  0  0  0
 22 23  1  0  0  0
 22 24  2  0  0  0
 24 25  1  0  0  0
 25 26  1  0  0  0
  5  6  1  0  0  0
  6  7  2  0  0  0
  7  8  1  0  0  0
  8  9  2  0  0  0
  9 10  1  0  0  0
 10 27  1  0  0  0
 27 28  1  0  0  0
 28 29  1  0  0  0
 29 30  1  0  0  0
 30 31  1  0  0  0
 31 32  1  0  0  0
 31 34  1  0  0  0
 32 33  2  0  0  0
 32 35  1  0  0  0
 35 36  1  0  0  0
 36 37  1  0  0  0
 36 38  1  0  0  0
M  END
> <minimizedAffinity>
-8.78070

$$$$
