CHEMBL3891115


 34 37  0  0  0  0  0  0  0  0999 V2000
  -15.2673    0.7517  -14.2761 N   0  0  0  0  0  0  0  0  0  0  0  0
  -14.8241   -0.5363  -13.7925 C   0  0  0  0  0  0  0  0  0  0  0  0
  -13.6599   -0.9570  -14.3926 C   0  0  0  0  0  0  0  0  0  0  0  0
  -13.5487   -2.2876  -14.6929 C   0  0  0  0  0  0  0  0  0  0  0  0
  -14.4117   -3.2093  -14.1951 C   0  0  0  0  0  0  0  0  0  0  0  0
  -14.3737   -4.3103  -14.9382 N   0  0  0  0  0  0  0  0  0  0  0  0
  -14.7117   -5.4382  -14.3527 C   0  0  0  0  0  0  0  0  0  0  0  0
  -14.8971   -5.5085  -12.9929 C   0  0  0  0  0  0  0  0  0  0  0  0
  -15.2558   -4.3305  -12.3250 N   0  0  0  0  0  0  0  0  0  0  0  0
  -15.1053   -3.0268  -13.0179 C   0  0  0  0  0  0  0  0  0  0  0  0
  -15.4604   -1.5306  -12.9609 C   0  0  0  0  0  0  0  0  0  0  0  0
  -14.2921   -6.7901  -12.4799 C   0  0  0  0  0  0  0  0  0  0  0  0
  -14.4113   -8.0779  -13.1469 C   0  0  0  0  0  0  0  0  0  0  0  0
  -13.9393   -9.1095  -12.4603 N   0  0  0  0  0  0  0  0  0  0  0  0
  -13.4479   -8.5442  -11.3641 N   0  0  0  0  0  0  0  0  0  0  0  0
  -13.6386   -7.1603  -11.3192 C   0  0  0  0  0  0  0  0  0  0  0  0
  -13.0256   -9.1505  -10.6746 H   0  0  0  0  0  0  0  0  0  0  0  0
  -14.1263    3.0380  -17.0278 C   0  0  0  0  0  0  0  0  0  0  0  0
  -13.2665    3.8874  -16.3496 C   0  0  0  0  0  0  0  0  0  0  0  0
  -12.9907    3.6581  -15.0008 C   0  0  0  0  0  0  0  0  0  0  0  0
  -13.5999    2.6022  -14.2961 C   0  0  0  0  0  0  0  0  0  0  0  0
  -14.5591    1.7826  -14.9407 C   0  0  0  0  0  0  0  0  0  0  0  0
  -14.7460    1.9928  -16.3281 C   0  0  0  0  0  0  0  0  0  0  0  0
  -14.6458    4.4362  -18.8785 C   0  0  0  0  0  0  0  0  0  0  0  0
  -14.4454    3.1259  -18.3564 O   0  0  0  0  0  0  0  0  0  0  0  0
  -13.2434    2.2737  -13.0068 O   0  0  0  0  0  0  0  0  0  0  0  0
  -12.0369    2.8476  -12.5064 C   0  0  0  0  0  0  0  0  0  0  0  0
  -16.7287    1.0230  -13.9203 C   0  0  0  0  0  0  0  0  0  0  0  0
  -17.8700    0.6175  -14.9193 C   0  0  0  0  0  0  0  0  0  0  0  0
  -18.9445    1.5509  -15.3016 N   0  0  0  0  0  0  0  0  0  0  0  0
  -19.3009    1.2823  -16.2193 H   0  0  0  0  0  0  0  0  0  0  0  0
  -20.0566    1.7492  -14.3645 C   0  0  0  0  0  0  0  0  0  0  0  0
  -20.6992    3.1399  -14.3857 C   0  0  0  0  0  0  0  0  0  0  0  0
  -21.1450    0.7093  -14.6771 C   0  0  0  0  0  0  0  0  0  0  0  0
 24 25  1  0  0  0
 25 18  1  0  0  0
 18 19  1  0  0  0
 18 23  2  0  0  0
 19 20  2  0  0  0
 20 21  1  0  0  0
 21 26  1  0  0  0
 21 22  2  0  0  0
 26 27  1  0  0  0
 22  1  1  0  0  0
 22 23  1  0  0  0
  1 28  1  0  0  0
  1  2  1  0  0  0
 28 29  1  0  0  0
 29 30  1  0  0  0
 30 32  1  0  0  0
 30 31  1  0  0  0
 32 33  1  0  0  0
 32 34  1  0  0  0
  2  3  1  0  0  0
  2 11  2  0  0  0
  3  4  2  0  0  0
  4  5  1  0  0  0
  5  6  1  0  0  0
  5 10  2  0  0  0
  6  7  2  0  0  0
  7  8  1  0  0  0
  8 12  1  0  0  0
  8  9  2  0  0  0
 12 13  1  0  0  0
 12 16  2  0  0  0
 13 14  2  0  0  0
 14 15  1  0  0  0
 15 16  1  0  0  0
 15 17  1  0  0  0
  9 10  1  0  0  0
 10 11  1  0  0  0
M  END
> <minimizedAffinity>
-7.07072

$$$$
