CHEMBL3109356


 33 37  0  0  0  0  0  0  0  0999 V2000
  -29.2000   -7.8709   -6.9858 C   0  0  0  0  0  0  0  0  0  0  0  0
  -30.4166   -8.1000   -7.6049 C   0  0  0  0  0  0  0  0  0  0  0  0
  -30.5259   -9.1933   -8.4465 C   0  0  0  0  0  0  0  0  0  0  0  0
  -29.4214  -10.0253   -8.6514 C   0  0  0  0  0  0  0  0  0  0  0  0
  -29.5509  -11.1326   -9.4960 C   0  0  0  0  0  0  0  0  0  0  0  0
  -28.4643  -11.9641   -9.7264 C   0  0  0  0  0  0  0  0  0  0  0  0
  -27.2378  -11.6847   -9.1258 C   0  0  0  0  0  0  0  0  0  0  0  0
  -27.0959  -10.5887   -8.2575 C   0  0  0  0  0  0  0  0  0  0  0  0
  -28.1940   -9.7295   -8.0037 C   0  0  0  0  0  0  0  0  0  0  0  0
  -28.1127   -8.6591   -7.1725 N   0  0  0  0  0  0  0  0  0  0  0  0
  -28.4911   -2.6964   -6.5661 C   0  0  0  0  0  0  0  0  0  0  0  0
  -28.5262   -3.5016   -7.7820 C   0  0  0  0  0  0  0  0  0  0  0  0
  -28.6944   -4.8317   -7.6859 C   0  0  0  0  0  0  0  0  0  0  0  0
  -28.8268   -5.4261   -6.4323 N   0  0  0  0  0  0  0  0  0  0  0  0
  -29.0375   -6.7478   -6.0737 C   0  0  0  0  0  0  0  0  0  0  0  0
  -29.1033   -6.7137   -4.6876 C   0  0  0  0  0  0  0  0  0  0  0  0
  -28.9628   -5.4491   -4.1895 N   0  0  0  0  0  0  0  0  0  0  0  0
  -28.8038   -4.6881   -5.2497 C   0  0  0  0  0  0  0  0  0  0  0  0
  -28.6286   -3.2791   -5.3582 C   0  0  0  0  0  0  0  0  0  0  0  0
  -28.3328   -1.3243   -6.6298 O   0  0  0  0  0  0  0  0  0  0  0  0
  -27.5795   -0.6941   -5.5965 C   0  0  0  0  0  0  0  0  0  0  0  0
  -28.2386    0.6214   -5.2132 C   0  0  0  0  0  0  0  0  0  0  0  0
  -30.4220    1.2732   -5.8081 C   0  0  0  0  0  0  0  0  0  0  0  0
  -29.1070    1.0149   -6.2751 O   0  0  0  0  0  0  0  0  0  0  0  0
  -25.8749  -10.2599   -7.6827 O   0  0  0  0  0  0  0  0  0  0  0  0
  -25.3004  -11.1981   -6.7470 C   0  0  0  0  0  0  0  0  0  0  0  0
  -25.6679  -10.7658   -5.3209 C   0  0  0  0  0  0  0  0  0  0  0  0
  -24.9362   -9.4998   -4.8654 C   0  0  0  0  0  0  0  0  0  0  0  0
  -23.4811   -9.5644   -5.0104 N   0  0  0  0  0  0  0  0  0  0  0  0
  -23.0780   -9.9955   -6.3545 C   0  0  0  0  0  0  0  0  0  0  0  0
  -23.7689  -11.2746   -6.8361 C   0  0  0  0  0  0  0  0  0  0  0  0
  -23.3799  -11.5565   -8.1082 F   0  0  0  0  0  0  0  0  0  0  0  0
  -23.0788  -10.1765   -4.3015 H   0  0  0  0  0  0  0  0  0  0  0  0
 23 24  1  0  0  0
 24 22  1  0  0  0
 22 21  1  0  0  0
 21 20  1  0  0  0
 20 11  1  0  0  0
 11 12  1  0  0  0
 11 19  2  0  0  0
 12 13  2  0  0  0
 13 14  1  0  0  0
 14 15  1  0  0  0
 14 18  1  0  0  0
 15  1  1  0  0  0
 15 16  2  0  0  0
  1  2  1  0  0  0
  1 10  2  0  0  0
  2  3  2  0  0  0
  3  4  1  0  0  0
  4  5  1  0  0  0
  4  9  2  0  0  0
  5  6  2  0  0  0
  6  7  1  0  0  0
  7  8  2  0  0  0
  8 25  1  0  0  0
  8  9  1  0  0  0
 25 26  1  0  0  0
 26 27  1  0  0  0
 26 31  1  0  0  0
 27 28  1  0  0  0
 28 29  1  0  0  0
 29 30  1  0  0  0
 29 33  1  0  0  0
 30 31  1  0  0  0
 31 32  1  0  0  0
  9 10  1  0  0  0
 16 17  1  0  0  0
 17 18  2  0  0  0
 18 19  1  0  0  0
M  END
> <minimizedAffinity>
-8.19410

$$$$
