CHEMBL366359


 28 31  0  0  0  0  0  0  0  0999 V2000
  -25.1383   -0.9492  -12.3664 C   0  0  0  0  0  0  0  0  0  0  0  0
  -25.9295   -0.9592  -13.4322 N   0  0  0  0  0  0  0  0  0  0  0  0
  -27.0318   -1.6681  -13.2817 C   0  0  0  0  0  0  0  0  0  0  0  0
  -27.8441   -1.6858  -14.3734 O   0  0  0  0  0  0  0  0  0  0  0  0
  -27.4358   -2.3413  -12.2218 N   0  0  0  0  0  0  0  0  0  0  0  0
  -26.6043   -2.2384  -11.2025 C   0  0  0  0  0  0  0  0  0  0  0  0
  -25.4640   -1.5585  -11.2307 N   0  0  0  0  0  0  0  0  0  0  0  0
  -27.3026   -1.1520  -14.9777 H   0  0  0  0  0  0  0  0  0  0  0  0
  -22.7719   -0.9177  -11.8085 C   0  0  0  0  0  0  0  0  0  0  0  0
  -23.9273   -0.2959  -12.4246 N   0  0  0  0  0  0  0  0  0  0  0  0
  -23.8510    1.0692  -12.9077 C   0  0  0  0  0  0  0  0  0  0  0  0
  -22.6084    1.3256  -13.7387 C   0  0  0  0  0  0  0  0  0  0  0  0
  -22.1653    2.6421  -13.9334 C   0  0  0  0  0  0  0  0  0  0  0  0
  -21.0013    2.9027  -14.6632 C   0  0  0  0  0  0  0  0  0  0  0  0
  -20.2672    1.8542  -15.2075 C   0  0  0  0  0  0  0  0  0  0  0  0
  -20.6851    0.5401  -15.0115 C   0  0  0  0  0  0  0  0  0  0  0  0
  -21.8425    0.2793  -14.2760 C   0  0  0  0  0  0  0  0  0  0  0  0
  -26.9554   -2.9476  -10.0520 N   0  0  0  0  0  0  0  0  0  0  0  0
  -27.2351   -3.8833  -10.3193 H   0  0  0  0  0  0  0  0  0  0  0  0
  -27.5416   -2.4910   -8.8586 C   0  0  0  0  0  0  0  0  0  0  0  0
  -28.2407   -3.4111   -8.0707 C   0  0  0  0  0  0  0  0  0  0  0  0
  -28.9115   -3.0279   -6.9043 C   0  0  0  0  0  0  0  0  0  0  0  0
  -28.8243   -1.6878   -6.5049 C   0  0  0  0  0  0  0  0  0  0  0  0
  -29.5322   -0.9143   -5.1380 S   0  0  0  0  0  0  0  0  0  0  0  0
  -28.7081    0.5291   -5.5448 C   0  0  0  0  0  0  0  0  0  0  0  0
  -28.0250    0.5173   -6.6662 N   0  0  0  0  0  0  0  0  0  0  0  0
  -28.0791   -0.7520   -7.2251 C   0  0  0  0  0  0  0  0  0  0  0  0
  -27.4463   -1.1620   -8.4186 C   0  0  0  0  0  0  0  0  0  0  0  0
  9 10  1  0  0  0
 10 11  1  0  0  0
 10  1  1  0  0  0
 11 12  1  0  0  0
 12 13  1  0  0  0
 12 17  2  0  0  0
 13 14  2  0  0  0
 14 15  1  0  0  0
 15 16  2  0  0  0
 16 17  1  0  0  0
  1  2  1  0  0  0
  1  7  2  0  0  0
  2  3  2  0  0  0
  3  4  1  0  0  0
  3  5  1  0  0  0
  4  8  1  0  0  0
  5  6  2  0  0  0
  6 18  1  0  0  0
  6  7  1  0  0  0
 18 20  1  0  0  0
 18 19  1  0  0  0
 20 21  1  0  0  0
 20 28  2  0  0  0
 21 22  2  0  0  0
 22 23  1  0  0  0
 23 24  1  0  0  0
 23 27  2  0  0  0
 24 25  1  0  0  0
 25 26  2  0  0  0
 26 27  1  0  0  0
 27 28  1  0  0  0
M  END
> <minimizedAffinity>
-9.14709

$$$$
