CHEMBL3955817


 33 36  0  0  0  0  0  0  0  0999 V2000
  -29.4895   -9.3685   -7.4028 N   0  0  0  0  0  0  0  0  0  0  0  0
  -29.0714   -8.2279   -6.6135 C   0  0  0  0  0  0  0  0  0  0  0  0
  -29.2171   -8.4074   -5.2316 C   0  0  0  0  0  0  0  0  0  0  0  0
  -29.5021   -7.3306   -4.4202 C   0  0  0  0  0  0  0  0  0  0  0  0
  -29.4856   -6.0423   -4.8978 C   0  0  0  0  0  0  0  0  0  0  0  0
  -29.9748   -5.1314   -4.0496 N   0  0  0  0  0  0  0  0  0  0  0  0
  -29.8203   -3.8479   -4.4071 C   0  0  0  0  0  0  0  0  0  0  0  0
  -29.1165   -3.4858   -5.5403 C   0  0  0  0  0  0  0  0  0  0  0  0
  -28.7358   -4.4122   -6.4742 N   0  0  0  0  0  0  0  0  0  0  0  0
  -28.9897   -5.7546   -6.1921 C   0  0  0  0  0  0  0  0  0  0  0  0
  -28.8462   -6.8979   -7.0668 C   0  0  0  0  0  0  0  0  0  0  0  0
  -28.6511   -2.1071   -5.5924 C   0  0  0  0  0  0  0  0  0  0  0  0
  -27.4460   -1.5475   -5.0968 C   0  0  0  0  0  0  0  0  0  0  0  0
  -27.4313   -0.2104   -5.1631 N   0  0  0  0  0  0  0  0  0  0  0  0
  -28.6235    0.0831   -5.7091 N   0  0  0  0  0  0  0  0  0  0  0  0
  -28.8512    1.3731   -6.3158 C   0  0  0  0  0  0  0  0  0  0  0  0
  -29.4569   -0.9999   -5.7873 C   0  0  0  0  0  0  0  0  0  0  0  0
  -28.6194  -10.3511  -10.8931 C   0  0  0  0  0  0  0  0  0  0  0  0
  -27.3182  -10.8267  -10.7387 C   0  0  0  0  0  0  0  0  0  0  0  0
  -26.7708  -10.9279   -9.4603 C   0  0  0  0  0  0  0  0  0  0  0  0
  -27.5044  -10.5039   -8.3431 C   0  0  0  0  0  0  0  0  0  0  0  0
  -28.8150  -10.0262   -8.4603 C   0  0  0  0  0  0  0  0  0  0  0  0
  -29.3758  -10.0093   -9.7537 C   0  0  0  0  0  0  0  0  0  0  0  0
  -28.3996   -9.8637  -13.2239 C   0  0  0  0  0  0  0  0  0  0  0  0
  -29.2371  -10.1451  -12.1013 O   0  0  0  0  0  0  0  0  0  0  0  0
  -25.4990  -11.3595   -9.1873 O   0  0  0  0  0  0  0  0  0  0  0  0
  -25.1293  -11.3607   -7.8126 C   0  0  0  0  0  0  0  0  0  0  0  0
  -30.9832   -9.2636   -7.5290 C   0  0  0  0  0  0  0  0  0  0  0  0
  -31.8548  -10.4198   -7.0441 C   0  0  0  0  0  0  0  0  0  0  0  0
  -31.2669  -11.5418   -6.2169 C   0  0  0  0  0  0  0  0  0  0  0  0
  -33.1419  -10.2680   -7.2009 N   0  0  0  0  0  0  0  0  0  0  0  0
  -33.8735  -11.2620   -6.5429 O   0  0  0  0  0  0  0  0  0  0  0  0
  -34.7951  -10.9782   -6.6945 H   0  0  0  0  0  0  0  0  0  0  0  0
 24 25  1  0  0  0
 25 18  1  0  0  0
 18 19  1  0  0  0
 18 23  2  0  0  0
 19 20  2  0  0  0
 20 26  1  0  0  0
 20 21  1  0  0  0
 26 27  1  0  0  0
 21 22  2  0  0  0
 22  1  1  0  0  0
 22 23  1  0  0  0
  1 28  1  0  0  0
  1  2  1  0  0  0
 28 29  1  0  0  0
 29 30  1  0  0  0
 29 31  2  0  0  0
 31 32  1  0  0  0
 32 33  1  0  0  0
  2  3  1  0  0  0
  2 11  2  0  0  0
  3  4  2  0  0  0
  4  5  1  0  0  0
  5  6  1  0  0  0
  5 10  2  0  0  0
  6  7  2  0  0  0
  7  8  1  0  0  0
  8 12  1  0  0  0
  8  9  2  0  0  0
 12 13  1  0  0  0
 12 17  2  0  0  0
 13 14  2  0  0  0
 14 15  1  0  0  0
 15 16  1  0  0  0
 15 17  1  0  0  0
  9 10  1  0  0  0
 10 11  1  0  0  0
M  END
> <minimizedAffinity>
-8.23318

$$$$
