CHEMBL178789


 25 27  0  0  0  0  0  0  0  0999 V2000
  -28.7056   -2.8859   -5.8468 C   0  0  0  0  0  0  0  0  0  0  0  0
  -28.5288   -3.3588   -4.5628 C   0  0  0  0  0  0  0  0  0  0  0  0
  -29.0178   -4.6237   -4.4839 N   0  0  0  0  0  0  0  0  0  0  0  0
  -29.0165   -5.3621   -3.3684 N   0  0  0  0  0  0  0  0  0  0  0  0
  -29.5297   -6.5374   -3.5210 C   0  0  0  0  0  0  0  0  0  0  0  0
  -30.0309   -7.0612   -4.6774 N   0  0  0  0  0  0  0  0  0  0  0  0
  -30.0353   -6.3582   -5.7762 C   0  0  0  0  0  0  0  0  0  0  0  0
  -29.5018   -5.0176   -5.7040 C   0  0  0  0  0  0  0  0  0  0  0  0
  -29.3283   -3.9583   -6.5989 C   0  0  0  0  0  0  0  0  0  0  0  0
  -29.6621   -3.8428   -8.0464 C   0  0  0  0  0  0  0  0  0  0  0  0
  -28.3224   -1.5541   -6.3124 C   0  0  0  0  0  0  0  0  0  0  0  0
  -27.4439   -1.3534   -7.1393 O   0  0  0  0  0  0  0  0  0  0  0  0
  -28.3176    0.5594   -5.2868 C   0  0  0  0  0  0  0  0  0  0  0  0
  -29.0647   -0.5731   -5.7233 O   0  0  0  0  0  0  0  0  0  0  0  0
  -30.5581   -6.8984   -6.9302 N   0  0  0  0  0  0  0  0  0  0  0  0
  -31.2177   -6.3406   -7.4424 H   0  0  0  0  0  0  0  0  0  0  0  0
  -29.8999   -7.7947   -7.7956 C   0  0  0  0  0  0  0  0  0  0  0  0
  -30.4321   -9.0391   -8.1374 C   0  0  0  0  0  0  0  0  0  0  0  0
  -29.7415   -9.9039   -8.9903 C   0  0  0  0  0  0  0  0  0  0  0  0
  -28.5009   -9.5387   -9.5273 C   0  0  0  0  0  0  0  0  0  0  0  0
  -27.7958  -10.4895  -10.4463 C   0  0  0  0  0  0  0  0  0  0  0  0
  -27.9686   -8.2936   -9.1765 C   0  0  0  0  0  0  0  0  0  0  0  0
  -26.7622   -7.8455   -9.6376 O   0  0  0  0  0  0  0  0  0  0  0  0
  -28.6552   -7.4323   -8.3209 C   0  0  0  0  0  0  0  0  0  0  0  0
  -26.3620   -8.5261  -10.2003 H   0  0  0  0  0  0  0  0  0  0  0  0
 13 14  1  0  0  0
 14 11  1  0  0  0
 11 12  2  0  0  0
 11  1  1  0  0  0
  1  2  2  0  0  0
  1  9  1  0  0  0
  2  3  1  0  0  0
  3  4  1  0  0  0
  3  8  1  0  0  0
  4  5  2  0  0  0
  5  6  1  0  0  0
  6  7  2  0  0  0
  7 15  1  0  0  0
  7  8  1  0  0  0
 15 17  1  0  0  0
 15 16  1  0  0  0
 17 18  1  0  0  0
 17 24  2  0  0  0
 18 19  2  0  0  0
 19 20  1  0  0  0
 20 21  1  0  0  0
 20 22  2  0  0  0
 22 23  1  0  0  0
 22 24  1  0  0  0
 23 25  1  0  0  0
  8  9  2  0  0  0
  9 10  1  0  0  0
M  END
> <minimizedAffinity>
-7.62323

$$$$
