CHEMBL3891135


 37 41  0  0  0  0  0  0  0  0999 V2000
  -29.7978   -4.9839   -7.0648 C   0  0  0  0  0  0  0  0  0  0  0  0
  -30.7666   -5.1651   -7.7889 O   0  0  0  0  0  0  0  0  0  0  0  0
  -29.4097   -5.9867   -6.0219 C   0  0  0  0  0  0  0  0  0  0  0  0
  -29.8853   -5.9227   -4.6938 C   0  0  0  0  0  0  0  0  0  0  0  0
  -29.4742   -6.8462   -3.7097 C   0  0  0  0  0  0  0  0  0  0  0  0
  -28.6929   -7.9434   -4.1302 C   0  0  0  0  0  0  0  0  0  0  0  0
  -28.3203   -9.2434   -3.6342 C   0  0  0  0  0  0  0  0  0  0  0  0
  -29.0452  -10.0584   -4.4383 N   0  0  0  0  0  0  0  0  0  0  0  0
  -28.7603   -9.4808   -5.6358 N   0  0  0  0  0  0  0  0  0  0  0  0
  -28.6043   -8.1179   -5.5076 C   0  0  0  0  0  0  0  0  0  0  0  0
  -28.6863   -7.1015   -6.4516 C   0  0  0  0  0  0  0  0  0  0  0  0
  -28.9172  -10.0171   -6.4808 H   0  0  0  0  0  0  0  0  0  0  0  0
  -26.9645   -9.7731   -3.4572 C   0  0  0  0  0  0  0  0  0  0  0  0
  -25.8357   -9.1690   -3.8764 C   0  0  0  0  0  0  0  0  0  0  0  0
  -24.7232   -9.9376   -4.4828 C   0  0  0  0  0  0  0  0  0  0  0  0
  -23.7959  -10.5784   -3.6662 C   0  0  0  0  0  0  0  0  0  0  0  0
  -22.6445  -11.1223   -4.2393 C   0  0  0  0  0  0  0  0  0  0  0  0
  -22.4413  -11.0071   -5.6081 C   0  0  0  0  0  0  0  0  0  0  0  0
  -23.4073  -10.3540   -6.3514 C   0  0  0  0  0  0  0  0  0  0  0  0
  -24.5334   -9.8208   -5.8215 N   0  0  0  0  0  0  0  0  0  0  0  0
  -27.6080   -2.3000   -8.5879 C   0  0  0  0  0  0  0  0  0  0  0  0
  -27.7547   -1.2996   -7.6211 C   0  0  0  0  0  0  0  0  0  0  0  0
  -28.4484   -1.5274   -6.4378 C   0  0  0  0  0  0  0  0  0  0  0  0
  -29.0357   -2.7603   -6.2215 C   0  0  0  0  0  0  0  0  0  0  0  0
  -29.0149   -3.7283   -7.2306 C   0  0  0  0  0  0  0  0  0  0  0  0
  -28.2749   -3.5162   -8.4063 C   0  0  0  0  0  0  0  0  0  0  0  0
  -27.2185   -1.4553  -10.8932 C   0  0  0  0  0  0  0  0  0  0  0  0
  -28.3064   -0.9098  -11.0659 O   0  0  0  0  0  0  0  0  0  0  0  0
  -26.8130   -2.1122   -9.7396 N   0  0  0  0  0  0  0  0  0  0  0  0
  -25.8311   -2.3737   -9.7237 H   0  0  0  0  0  0  0  0  0  0  0  0
  -22.9322   -0.7606  -13.5334 C   0  0  0  0  0  0  0  0  0  0  0  0
  -24.2907   -1.0749  -13.0415 C   0  0  0  0  0  0  0  0  0  0  0  0
  -24.8765   -0.9257  -11.8073 C   0  0  0  0  0  0  0  0  0  0  0  0
  -26.2033   -1.4160  -11.9542 C   0  0  0  0  0  0  0  0  0  0  0  0
  -26.4245   -1.8513  -13.2073 N   0  0  0  0  0  0  0  0  0  0  0  0
  -25.2598   -1.6218  -13.8390 N   0  0  0  0  0  0  0  0  0  0  0  0
  -25.1883   -1.8635  -14.8234 H   0  0  0  0  0  0  0  0  0  0  0  0
 31 32  1  0  0  0
 32 33  2  0  0  0
 32 36  1  0  0  0
 33 34  1  0  0  0
 34 27  1  0  0  0
 34 35  2  0  0  0
 27 28  2  0  0  0
 27 29  1  0  0  0
 29 21  1  0  0  0
 29 30  1  0  0  0
 21 22  1  0  0  0
 21 26  2  0  0  0
 22 23  2  0  0  0
 23 24  1  0  0  0
 24 25  2  0  0  0
 25  1  1  0  0  0
 25 26  1  0  0  0
  1  2  2  0  0  0
  1  3  1  0  0  0
  3  4  1  0  0  0
  3 11  2  0  0  0
  4  5  2  0  0  0
  5  6  1  0  0  0
  6  7  1  0  0  0
  6 10  2  0  0  0
  7 13  1  0  0  0
  7  8  2  0  0  0
 13 14  2  0  0  0
 14 15  1  0  0  0
 15 16  1  0  0  0
 15 20  2  0  0  0
 16 17  2  0  0  0
 17 18  1  0  0  0
 18 19  2  0  0  0
 19 20  1  0  0  0
  8  9  1  0  0  0
  9 10  1  0  0  0
  9 12  1  0  0  0
 10 11  1  0  0  0
 35 36  1  0  0  0
 36 37  1  0  0  0
M  END
> <minimizedAffinity>
-10.17911

$$$$
