CHEMBL445799


 43 47  0  0  0  0  0  0  0  0999 V2000
  -14.5170    0.2306  -16.1789 N   0  0  0  0  0  0  0  0  0  0  0  0
  -13.7263    0.0052  -15.0636 C   0  0  0  0  0  0  0  0  0  0  0  0
  -12.9998    0.8463  -14.5414 O   0  0  0  0  0  0  0  0  0  0  0  0
  -14.8923   -0.5899  -16.6572 H   0  0  0  0  0  0  0  0  0  0  0  0
  -15.1483    4.0459  -17.9145 C   0  0  0  0  0  0  0  0  0  0  0  0
  -15.8744    3.6696  -16.7856 C   0  0  0  0  0  0  0  0  0  0  0  0
  -15.6523    2.4217  -16.1925 C   0  0  0  0  0  0  0  0  0  0  0  0
  -14.7732    1.4931  -16.7601 C   0  0  0  0  0  0  0  0  0  0  0  0
  -14.1506    1.8179  -17.9684 C   0  0  0  0  0  0  0  0  0  0  0  0
  -14.3248    3.0921  -18.5189 C   0  0  0  0  0  0  0  0  0  0  0  0
  -13.6449    3.4049  -19.6331 F   0  0  0  0  0  0  0  0  0  0  0  0
  -15.1505    5.3120  -18.4692 O   0  0  0  0  0  0  0  0  0  0  0  0
  -13.7738   10.1837  -19.5761 C   0  0  0  0  0  0  0  0  0  0  0  0
  -14.9036    9.4584  -19.9253 C   0  0  0  0  0  0  0  0  0  0  0  0
  -15.0917    8.1844  -19.3996 C   0  0  0  0  0  0  0  0  0  0  0  0
  -14.1067    7.5669  -18.5976 C   0  0  0  0  0  0  0  0  0  0  0  0
  -14.1571    6.2213  -18.1558 C   0  0  0  0  0  0  0  0  0  0  0  0
  -13.1823    5.7339  -17.2892 C   0  0  0  0  0  0  0  0  0  0  0  0
  -12.1487    6.5749  -16.9438 C   0  0  0  0  0  0  0  0  0  0  0  0
  -12.0185    7.8349  -17.4102 N   0  0  0  0  0  0  0  0  0  0  0  0
  -12.9705    8.3181  -18.2245 C   0  0  0  0  0  0  0  0  0  0  0  0
  -12.8267    9.6074  -18.7266 C   0  0  0  0  0  0  0  0  0  0  0  0
  -12.4481   12.1139  -19.3246 C   0  0  0  0  0  0  0  0  0  0  0  0
  -13.4967   11.4468  -20.0237 O   0  0  0  0  0  0  0  0  0  0  0  0
  -13.7790   -1.3678  -14.5208 C   0  0  0  0  0  0  0  0  0  0  0  0
  -14.5344   -1.8420  -13.5006 C   0  0  0  0  0  0  0  0  0  0  0  0
  -15.4789   -1.0306  -12.6654 C   0  0  0  0  0  0  0  0  0  0  0  0
  -14.3823   -3.2254  -13.3366 N   0  0  0  0  0  0  0  0  0  0  0  0
  -13.3891   -3.6360  -14.2423 N   0  0  0  0  0  0  0  0  0  0  0  0
  -13.0004   -2.5376  -15.0093 C   0  0  0  0  0  0  0  0  0  0  0  0
  -12.2095   -2.4710  -15.9379 O   0  0  0  0  0  0  0  0  0  0  0  0
  -13.0673   -4.9753  -14.5289 C   0  0  0  0  0  0  0  0  0  0  0  0
  -12.0482   -5.5797  -13.7818 C   0  0  0  0  0  0  0  0  0  0  0  0
  -11.8397   -6.9564  -13.8580 C   0  0  0  0  0  0  0  0  0  0  0  0
  -12.5716   -7.7219  -14.7630 C   0  0  0  0  0  0  0  0  0  0  0  0
  -13.5289   -7.1131  -15.5743 C   0  0  0  0  0  0  0  0  0  0  0  0
  -13.7974   -5.7471  -15.4382 C   0  0  0  0  0  0  0  0  0  0  0  0
  -14.7052   -4.0317  -12.1451 C   0  0  0  0  0  0  0  0  0  0  0  0
  -15.9069   -5.0193  -12.2585 C   0  0  0  0  0  0  0  0  0  0  0  0
  -16.7357   -4.7751  -13.5175 C   0  0  0  0  0  0  0  0  0  0  0  0
  -15.3599   -6.4526  -12.1942 C   0  0  0  0  0  0  0  0  0  0  0  0
  -16.8253   -4.9515  -11.1684 O   0  0  0  0  0  0  0  0  0  0  0  0
  -17.2076   -4.0582  -11.1822 H   0  0  0  0  0  0  0  0  0  0  0  0
 23 24  1  0  0  0
 24 13  1  0  0  0
 13 14  1  0  0  0
 13 22  2  0  0  0
 14 15  2  0  0  0
 15 16  1  0  0  0
 16 17  1  0  0  0
 16 21  2  0  0  0
 17 12  1  0  0  0
 17 18  2  0  0  0
 12  5  1  0  0  0
  5  6  1  0  0  0
  5 10  2  0  0  0
  6  7  2  0  0  0
  7  8  1  0  0  0
  8  1  1  0  0  0
  8  9  2  0  0  0
  1  2  1  0  0  0
  1  4  1  0  0  0
  2  3  2  0  0  0
  2 25  1  0  0  0
 25 26  2  0  0  0
 25 30  1  0  0  0
 26 27  1  0  0  0
 26 28  1  0  0  0
 28 38  1  0  0  0
 28 29  1  0  0  0
 38 39  1  0  0  0
 39 40  1  0  0  0
 39 41  1  0  0  0
 39 42  1  0  0  0
 42 43  1  0  0  0
 29 32  1  0  0  0
 29 30  1  0  0  0
 32 33  1  0  0  0
 32 37  2  0  0  0
 33 34  2  0  0  0
 34 35  1  0  0  0
 35 36  2  0  0  0
 36 37  1  0  0  0
 30 31  2  0  0  0
  9 10  1  0  0  0
 10 11  1  0  0  0
 18 19  1  0  0  0
 19 20  2  0  0  0
 20 21  1  0  0  0
 21 22  1  0  0  0
M  END
> <minimizedAffinity>
-7.19778

$$$$
