CHEMBL4562341


 39 43  0  0  0  0  0  0  0  0999 V2000
  -14.9597    3.2415  -17.8919 C   0  0  0  0  0  0  0  0  0  0  0  0
  -15.2808    4.4037  -18.6175 C   0  0  0  0  0  0  0  0  0  0  0  0
  -14.6745    5.6402  -18.2166 C   0  0  0  0  0  0  0  0  0  0  0  0
  -14.5846    6.8111  -18.9877 C   0  0  0  0  0  0  0  0  0  0  0  0
  -13.4731    6.8988  -19.7889 C   0  0  0  0  0  0  0  0  0  0  0  0
  -12.5951    5.8486  -19.6625 C   0  0  0  0  0  0  0  0  0  0  0  0
  -12.4536    5.2838  -18.3683 C   0  0  0  0  0  0  0  0  0  0  0  0
  -13.5821    5.3320  -17.4922 C   0  0  0  0  0  0  0  0  0  0  0  0
  -13.8892    4.6049  -16.3749 N   0  0  0  0  0  0  0  0  0  0  0  0
  -14.8415    3.6629  -16.5945 C   0  0  0  0  0  0  0  0  0  0  0  0
  -11.9884    0.1840  -19.1587 C   0  0  0  0  0  0  0  0  0  0  0  0
  -12.7902    0.8679  -20.0421 C   0  0  0  0  0  0  0  0  0  0  0  0
  -13.7092    1.7899  -19.5693 C   0  0  0  0  0  0  0  0  0  0  0  0
  -13.8095    2.2319  -18.2193 C   0  0  0  0  0  0  0  0  0  0  0  0
  -12.9348    1.5691  -17.3434 C   0  0  0  0  0  0  0  0  0  0  0  0
  -12.0663    0.5173  -17.8036 C   0  0  0  0  0  0  0  0  0  0  0  0
  -11.3246   -0.8803  -21.2064 C   0  0  0  0  0  0  0  0  0  0  0  0
  -11.2431   -0.7523  -19.8034 O   0  0  0  0  0  0  0  0  0  0  0  0
  -12.2798    5.0967  -20.7855 O   0  0  0  0  0  0  0  0  0  0  0  0
  -11.1290    4.2343  -20.5434 C   0  0  0  0  0  0  0  0  0  0  0  0
  -15.6173    3.1190  -15.5575 N   0  0  0  0  0  0  0  0  0  0  0  0
  -14.9858    2.7533  -14.8546 H   0  0  0  0  0  0  0  0  0  0  0  0
  -16.9163    2.5565  -15.5381 C   0  0  0  0  0  0  0  0  0  0  0  0
  -17.9976    3.4166  -15.7447 C   0  0  0  0  0  0  0  0  0  0  0  0
  -19.3207    2.9998  -15.5293 C   0  0  0  0  0  0  0  0  0  0  0  0
  -19.6223    1.7129  -15.1121 C   0  0  0  0  0  0  0  0  0  0  0  0
  -18.5630    0.8014  -15.0340 C   0  0  0  0  0  0  0  0  0  0  0  0
  -17.2354    1.2178  -15.2997 C   0  0  0  0  0  0  0  0  0  0  0  0
  -20.9056    1.2871  -14.7052 N   0  0  0  0  0  0  0  0  0  0  0  0
  -21.8602    2.0884  -14.0918 C   0  0  0  0  0  0  0  0  0  0  0  0
  -21.8129    3.3174  -14.0352 O   0  0  0  0  0  0  0  0  0  0  0  0
  -21.1575    0.3281  -14.9182 H   0  0  0  0  0  0  0  0  0  0  0  0
  -23.0792    1.3362  -13.5318 C   0  0  0  0  0  0  0  0  0  0  0  0
  -23.0178   -0.1393  -13.5504 N   0  0  0  0  0  0  0  0  0  0  0  0
  -24.0681   -0.8400  -14.3131 C   0  0  0  0  0  0  0  0  0  0  0  0
  -25.3167   -1.2811  -13.5144 C   0  0  0  0  0  0  0  0  0  0  0  0
  -24.9865   -1.8905  -12.2583 O   0  0  0  0  0  0  0  0  0  0  0  0
  -24.1257   -1.0446  -11.4896 C   0  0  0  0  0  0  0  0  0  0  0  0
  -22.8217   -0.7868  -12.2492 C   0  0  0  0  0  0  0  0  0  0  0  0
 17 18  1  0  0  0
 18 11  1  0  0  0
 11 12  1  0  0  0
 11 16  2  0  0  0
 12 13  2  0  0  0
 13 14  1  0  0  0
 14  1  1  0  0  0
 14 15  2  0  0  0
  1  2  1  0  0  0
  1 10  2  0  0  0
  2  3  2  0  0  0
  3  4  1  0  0  0
  3  8  1  0  0  0
  4  5  2  0  0  0
  5  6  1  0  0  0
  6 19  1  0  0  0
  6  7  2  0  0  0
 19 20  1  0  0  0
  7  8  1  0  0  0
  8  9  2  0  0  0
  9 10  1  0  0  0
 10 21  1  0  0  0
 21 23  1  0  0  0
 21 22  1  0  0  0
 23 24  1  0  0  0
 23 28  2  0  0  0
 24 25  2  0  0  0
 25 26  1  0  0  0
 26 29  1  0  0  0
 26 27  2  0  0  0
 29 30  1  0  0  0
 29 32  1  0  0  0
 30 31  2  0  0  0
 30 33  1  0  0  0
 33 34  1  0  0  0
 34 35  1  0  0  0
 34 39  1  0  0  0
 35 36  1  0  0  0
 36 37  1  0  0  0
 37 38  1  0  0  0
 38 39  1  0  0  0
 27 28  1  0  0  0
 15 16  1  0  0  0
M  END
> <minimizedAffinity>
-8.03074

$$$$
