CHEMBL2016900


 31 35  0  0  0  0  0  0  0  0999 V2000
  -28.1513  -10.0687   -6.6247 O   0  0  0  0  0  0  0  0  0  0  0  0
  -29.3305   -9.7371   -6.4838 C   0  0  0  0  0  0  0  0  0  0  0  0
  -29.6484   -8.4319   -6.0311 N   0  0  0  0  0  0  0  0  0  0  0  0
  -31.0404   -8.0148   -5.9353 C   0  0  0  0  0  0  0  0  0  0  0  0
  -31.4604   -6.7082   -5.2996 C   0  0  0  0  0  0  0  0  0  0  0  0
  -30.3582   -5.7705   -5.3420 C   0  0  0  0  0  0  0  0  0  0  0  0
  -30.4991   -4.4721   -5.0074 N   0  0  0  0  0  0  0  0  0  0  0  0
  -29.3152   -3.9305   -5.2181 C   0  0  0  0  0  0  0  0  0  0  0  0
  -28.4175   -4.8748   -5.6811 N   0  0  0  0  0  0  0  0  0  0  0  0
  -29.0853   -6.0789   -5.7379 C   0  0  0  0  0  0  0  0  0  0  0  0
  -28.5874   -7.4011   -6.1923 C   0  0  0  0  0  0  0  0  0  0  0  0
  -27.4664   -4.6811   -5.9632 H   0  0  0  0  0  0  0  0  0  0  0  0
  -28.9654   -2.5744   -5.0693 C   0  0  0  0  0  0  0  0  0  0  0  0
  -29.9690   -1.6735   -5.0317 C   0  0  0  0  0  0  0  0  0  0  0  0
  -29.6992   -0.2701   -5.2982 C   0  0  0  0  0  0  0  0  0  0  0  0
  -30.7494    0.6320   -5.4244 C   0  0  0  0  0  0  0  0  0  0  0  0
  -30.6760    1.5772   -6.4299 C   0  0  0  0  0  0  0  0  0  0  0  0
  -31.8043    2.0706   -6.9569 F   0  0  0  0  0  0  0  0  0  0  0  0
  -29.4310    1.9410   -6.9278 C   0  0  0  0  0  0  0  0  0  0  0  0
  -28.2991    1.2683   -6.4876 C   0  0  0  0  0  0  0  0  0  0  0  0
  -28.4611    0.0652   -5.7946 C   0  0  0  0  0  0  0  0  0  0  0  0
  -27.3952   -0.7627   -5.5945 N   0  0  0  0  0  0  0  0  0  0  0  0
  -27.5506   -2.0672   -5.2060 C   0  0  0  0  0  0  0  0  0  0  0  0
  -26.6011   -2.8405   -5.0547 O   0  0  0  0  0  0  0  0  0  0  0  0
  -26.4470   -0.4911   -5.8025 H   0  0  0  0  0  0  0  0  0  0  0  0
  -30.3951  -10.7625   -6.8623 C   0  0  0  0  0  0  0  0  0  0  0  0
  -31.1404  -11.6074   -6.0218 C   0  0  0  0  0  0  0  0  0  0  0  0
  -32.1245  -12.4658   -6.5038 C   0  0  0  0  0  0  0  0  0  0  0  0
  -32.3925  -12.4448   -7.8468 C   0  0  0  0  0  0  0  0  0  0  0  0
  -31.7332  -11.6489   -8.7120 N   0  0  0  0  0  0  0  0  0  0  0  0
  -30.7562  -10.8372   -8.2044 C   0  0  0  0  0  0  0  0  0  0  0  0
  1  2  2  0  0  0
  2 26  1  0  0  0
  2  3  1  0  0  0
 26 27  1  0  0  0
 26 31  2  0  0  0
 27 28  2  0  0  0
 28 29  1  0  0  0
 29 30  2  0  0  0
 30 31  1  0  0  0
  3  4  1  0  0  0
  3 11  1  0  0  0
  4  5  1  0  0  0
  5  6  1  0  0  0
  6  7  1  0  0  0
  6 10  2  0  0  0
  7  8  2  0  0  0
  8 13  1  0  0  0
  8  9  1  0  0  0
 13 14  2  0  0  0
 13 23  1  0  0  0
 14 15  1  0  0  0
 15 16  1  0  0  0
 15 21  2  0  0  0
 16 17  2  0  0  0
 17 18  1  0  0  0
 17 19  1  0  0  0
 19 20  2  0  0  0
 20 21  1  0  0  0
 21 22  1  0  0  0
 22 23  1  0  0  0
 22 25  1  0  0  0
 23 24  2  0  0  0
  9 10  1  0  0  0
  9 12  1  0  0  0
 10 11  1  0  0  0
M  END
> <minimizedAffinity>
-8.43375

$$$$
