CHEMBL410686


 32 36  0  0  0  0  0  0  0  0999 V2000
  -13.8631    0.2644  -15.5925 C   0  0  0  0  0  0  0  0  0  0  0  0
  -13.0057    1.0170  -16.2239 N   0  0  0  0  0  0  0  0  0  0  0  0
  -11.6931    1.0532  -15.8441 C   0  0  0  0  0  0  0  0  0  0  0  0
  -11.1625    0.3802  -14.8814 N   0  0  0  0  0  0  0  0  0  0  0  0
  -12.0167   -0.4228  -14.2344 N   0  0  0  0  0  0  0  0  0  0  0  0
  -11.6423   -1.2655  -13.2388 C   0  0  0  0  0  0  0  0  0  0  0  0
  -12.7316   -2.0223  -12.8847 C   0  0  0  0  0  0  0  0  0  0  0  0
  -13.8735   -1.5253  -13.6200 C   0  0  0  0  0  0  0  0  0  0  0  0
  -13.3585   -0.5529  -14.4989 C   0  0  0  0  0  0  0  0  0  0  0  0
  -12.6077   -3.1653  -11.9220 C   0  0  0  0  0  0  0  0  0  0  0  0
  -12.3283   -4.4035  -12.2944 N   0  0  0  0  0  0  0  0  0  0  0  0
  -12.3823   -5.1947  -11.1663 N   0  0  0  0  0  0  0  0  0  0  0  0
  -12.6991   -4.3927  -10.1766 C   0  0  0  0  0  0  0  0  0  0  0  0
  -12.9524   -4.7080   -8.7608 C   0  0  0  0  0  0  0  0  0  0  0  0
  -12.8421   -3.0911  -10.5670 O   0  0  0  0  0  0  0  0  0  0  0  0
  -15.2836   -2.0447  -13.4211 C   0  0  0  0  0  0  0  0  0  0  0  0
  -15.4782   -3.4848  -13.8980 C   0  0  0  0  0  0  0  0  0  0  0  0
  -15.8431   -1.7837  -12.0258 C   0  0  0  0  0  0  0  0  0  0  0  0
  -15.1799    0.2996  -15.9848 N   0  0  0  0  0  0  0  0  0  0  0  0
  -15.4762   -0.3388  -16.7044 H   0  0  0  0  0  0  0  0  0  0  0  0
  -21.7538    3.2839  -14.3863 C   0  0  0  0  0  0  0  0  0  0  0  0
  -20.3473    2.8424  -14.5522 C   0  0  0  0  0  0  0  0  0  0  0  0
  -19.7576    1.6030  -14.3765 C   0  0  0  0  0  0  0  0  0  0  0  0
  -18.4191    1.6929  -14.8441 C   0  0  0  0  0  0  0  0  0  0  0  0
  -17.3542    0.8085  -15.0572 C   0  0  0  0  0  0  0  0  0  0  0  0
  -17.4837   -0.4939  -14.7515 F   0  0  0  0  0  0  0  0  0  0  0  0
  -16.1738    1.2503  -15.6755 C   0  0  0  0  0  0  0  0  0  0  0  0
  -16.1076    2.6186  -15.9456 C   0  0  0  0  0  0  0  0  0  0  0  0
  -17.0860    3.5418  -15.7304 N   0  0  0  0  0  0  0  0  0  0  0  0
  -18.2059    3.0127  -15.2108 C   0  0  0  0  0  0  0  0  0  0  0  0
  -19.3646    3.7044  -14.9856 N   0  0  0  0  0  0  0  0  0  0  0  0
  -19.4769    4.6858  -15.1950 H   0  0  0  0  0  0  0  0  0  0  0  0
 21 22  1  0  0  0
 22 23  2  0  0  0
 22 31  1  0  0  0
 23 24  1  0  0  0
 24 25  1  0  0  0
 24 30  2  0  0  0
 25 26  1  0  0  0
 25 27  2  0  0  0
 27 19  1  0  0  0
 27 28  1  0  0  0
 19  1  1  0  0  0
 19 20  1  0  0  0
  1  2  2  0  0  0
  1  9  1  0  0  0
  2  3  1  0  0  0
  3  4  2  0  0  0
  4  5  1  0  0  0
  5  6  1  0  0  0
  5  9  1  0  0  0
  6  7  2  0  0  0
  7 10  1  0  0  0
  7  8  1  0  0  0
 10 11  2  0  0  0
 10 15  1  0  0  0
 11 12  1  0  0  0
 12 13  2  0  0  0
 13 14  1  0  0  0
 13 15  1  0  0  0
  8 16  1  0  0  0
  8  9  2  0  0  0
 16 17  1  0  0  0
 16 18  1  0  0  0
 28 29  2  0  0  0
 29 30  1  0  0  0
 30 31  1  0  0  0
 31 32  1  0  0  0
M  END
> <minimizedAffinity>
-8.22473

$$$$
