CHEMBL493670


 28 31  0  0  0  0  0  0  0  0999 V2000
  -32.8106   -7.6163   -6.2420 C   0  0  0  0  0  0  0  0  0  0  0  0
  -31.6980   -8.1831   -7.0902 C   0  0  0  0  0  0  0  0  0  0  0  0
  -31.9355   -9.4736   -7.6225 C   0  0  0  0  0  0  0  0  0  0  0  0
  -31.0191  -10.0965   -8.4640 C   0  0  0  0  0  0  0  0  0  0  0  0
  -29.8298   -9.4454   -8.7712 C   0  0  0  0  0  0  0  0  0  0  0  0
  -29.5694   -8.1788   -8.2232 C   0  0  0  0  0  0  0  0  0  0  0  0
  -30.4753   -7.5070   -7.3695 C   0  0  0  0  0  0  0  0  0  0  0  0
  -30.0891   -6.1552   -6.8436 C   0  0  0  0  0  0  0  0  0  0  0  0
  -30.1499   -4.9959   -7.6456 C   0  0  0  0  0  0  0  0  0  0  0  0
  -29.7838   -3.7243   -7.1624 C   0  0  0  0  0  0  0  0  0  0  0  0
  -29.3828   -3.5465   -5.8222 C   0  0  0  0  0  0  0  0  0  0  0  0
  -29.0861   -2.3169   -5.2041 C   0  0  0  0  0  0  0  0  0  0  0  0
  -28.6968   -2.2276   -3.9087 N   0  0  0  0  0  0  0  0  0  0  0  0
  -28.6052   -3.3401   -3.1438 N   0  0  0  0  0  0  0  0  0  0  0  0
  -28.9040   -4.5320   -3.6949 C   0  0  0  0  0  0  0  0  0  0  0  0
  -29.2933   -4.6906   -5.0188 C   0  0  0  0  0  0  0  0  0  0  0  0
  -29.6056   -5.9650   -5.5412 C   0  0  0  0  0  0  0  0  0  0  0  0
  -29.1995   -1.1431   -5.9334 O   0  0  0  0  0  0  0  0  0  0  0  0
  -29.3256    0.0208   -5.0925 C   0  0  0  0  0  0  0  0  0  0  0  0
  -28.0247    0.8242   -5.0504 C   0  0  0  0  0  0  0  0  0  0  0  0
  -30.4444    0.8918   -5.6608 C   0  0  0  0  0  0  0  0  0  0  0  0
  -28.8194  -10.0248   -9.6980 C   0  0  0  0  0  0  0  0  0  0  0  0
  -28.0469  -10.8878   -9.2951 O   0  0  0  0  0  0  0  0  0  0  0  0
  -28.8440   -9.5598  -10.9992 N   0  0  0  0  0  0  0  0  0  0  0  0
  -29.6169   -8.9840  -11.3044 H   0  0  0  0  0  0  0  0  0  0  0  0
  -27.9649  -10.0817  -11.9971 C   0  0  0  0  0  0  0  0  0  0  0  0
  -27.1078   -9.1569  -12.8168 C   0  0  0  0  0  0  0  0  0  0  0  0
  -28.2585   -9.8767  -13.4588 C   0  0  0  0  0  0  0  0  0  0  0  0
  1  2  1  0  0  0
  2  3  1  0  0  0
  2  7  2  0  0  0
  3  4  2  0  0  0
  4  5  1  0  0  0
  5 22  1  0  0  0
  5  6  2  0  0  0
 22 23  2  0  0  0
 22 24  1  0  0  0
 24 26  1  0  0  0
 24 25  1  0  0  0
 26 27  1  0  0  0
 26 28  1  0  0  0
 27 28  1  0  0  0
  6  7  1  0  0  0
  7  8  1  0  0  0
  8  9  1  0  0  0
  8 17  2  0  0  0
  9 10  2  0  0  0
 10 11  1  0  0  0
 11 12  1  0  0  0
 11 16  2  0  0  0
 12 18  1  0  0  0
 12 13  2  0  0  0
 18 19  1  0  0  0
 19 20  1  0  0  0
 19 21  1  0  0  0
 13 14  1  0  0  0
 14 15  2  0  0  0
 15 16  1  0  0  0
 16 17  1  0  0  0
M  END
> <minimizedAffinity>
-8.78919

$$$$
