CHEMBL3958153


 31 34  0  0  0  0  0  0  0  0999 V2000
  -28.8477   -4.9042   -5.7055 C   0  0  0  0  0  0  0  0  0  0  0  0
  -28.3588   -3.8954   -4.8929 C   0  0  0  0  0  0  0  0  0  0  0  0
  -28.0591   -2.6489   -5.4243 C   0  0  0  0  0  0  0  0  0  0  0  0
  -28.0590   -2.4325   -6.7778 C   0  0  0  0  0  0  0  0  0  0  0  0
  -27.9208   -1.1501   -7.1236 N   0  0  0  0  0  0  0  0  0  0  0  0
  -27.7154   -0.8981   -8.4210 C   0  0  0  0  0  0  0  0  0  0  0  0
  -27.5703   -1.9065   -9.3533 C   0  0  0  0  0  0  0  0  0  0  0  0
  -27.8408   -3.2168   -9.0268 N   0  0  0  0  0  0  0  0  0  0  0  0
  -28.1594   -3.5052   -7.6960 C   0  0  0  0  0  0  0  0  0  0  0  0
  -28.6344   -4.7539   -7.1115 C   0  0  0  0  0  0  0  0  0  0  0  0
  -26.9353   -1.5154  -10.6114 C   0  0  0  0  0  0  0  0  0  0  0  0
  -27.4187   -1.6518  -11.9413 C   0  0  0  0  0  0  0  0  0  0  0  0
  -26.4769   -1.4344  -12.8687 N   0  0  0  0  0  0  0  0  0  0  0  0
  -25.3801   -1.1632  -12.1422 N   0  0  0  0  0  0  0  0  0  0  0  0
  -24.1986   -0.6237  -12.7753 C   0  0  0  0  0  0  0  0  0  0  0  0
  -25.5699   -1.3545  -10.7994 C   0  0  0  0  0  0  0  0  0  0  0  0
  -29.7078   -5.8527   -5.0439 N   0  0  0  0  0  0  0  0  0  0  0  0
  -30.1117   -9.3324   -6.4028 C   0  0  0  0  0  0  0  0  0  0  0  0
  -29.4462  -10.0802   -5.4316 C   0  0  0  0  0  0  0  0  0  0  0  0
  -28.9107   -9.4477   -4.3138 C   0  0  0  0  0  0  0  0  0  0  0  0
  -29.0555   -8.0650   -4.1608 C   0  0  0  0  0  0  0  0  0  0  0  0
  -29.7250   -7.2694   -5.1051 C   0  0  0  0  0  0  0  0  0  0  0  0
  -30.2625   -7.9410   -6.2238 C   0  0  0  0  0  0  0  0  0  0  0  0
  -31.9488   -9.4892   -7.9287 C   0  0  0  0  0  0  0  0  0  0  0  0
  -30.6138   -9.8558   -7.5694 O   0  0  0  0  0  0  0  0  0  0  0  0
  -28.1939  -10.0586   -3.3194 O   0  0  0  0  0  0  0  0  0  0  0  0
  -26.8176  -10.3114   -3.5757 C   0  0  0  0  0  0  0  0  0  0  0  0
  -31.0516   -5.1762   -4.8542 C   0  0  0  0  0  0  0  0  0  0  0  0
  -31.6612   -5.2421   -3.4430 C   0  0  0  0  0  0  0  0  0  0  0  0
  -31.2062   -4.1777   -2.6090 O   0  0  0  0  0  0  0  0  0  0  0  0
  -30.8714   -4.5833   -1.7900 H   0  0  0  0  0  0  0  0  0  0  0  0
 24 25  1  0  0  0
 25 18  1  0  0  0
 18 19  1  0  0  0
 18 23  2  0  0  0
 19 20  2  0  0  0
 20 26  1  0  0  0
 20 21  1  0  0  0
 26 27  1  0  0  0
 21 22  2  0  0  0
 22 17  1  0  0  0
 22 23  1  0  0  0
 17 28  1  0  0  0
 17  1  1  0  0  0
 28 29  1  0  0  0
 29 30  1  0  0  0
 30 31  1  0  0  0
  1  2  1  0  0  0
  1 10  2  0  0  0
  2  3  2  0  0  0
  3  4  1  0  0  0
  4  5  1  0  0  0
  4  9  2  0  0  0
  5  6  2  0  0  0
  6  7  1  0  0  0
  7 11  1  0  0  0
  7  8  2  0  0  0
 11 12  1  0  0  0
 11 16  2  0  0  0
 12 13  2  0  0  0
 13 14  1  0  0  0
 14 15  1  0  0  0
 14 16  1  0  0  0
  8  9  1  0  0  0
  9 10  1  0  0  0
M  END
> <minimizedAffinity>
-7.64165

$$$$
