CHEMBL3671552


 35 37  0  0  0  0  0  0  0  0999 V2000
  -28.6378   -5.0449   -5.4085 C   0  0  0  0  0  0  0  0  0  0  0  0
  -28.3021   -6.3373   -5.0187 C   0  0  0  0  0  0  0  0  0  0  0  0
  -28.5982   -7.4311   -5.8538 C   0  0  0  0  0  0  0  0  0  0  0  0
  -28.3858   -8.7729   -5.4919 C   0  0  0  0  0  0  0  0  0  0  0  0
  -28.6551   -9.7881   -6.3298 N   0  0  0  0  0  0  0  0  0  0  0  0
  -29.1773   -9.4590   -7.5142 C   0  0  0  0  0  0  0  0  0  0  0  0
  -29.4457   -8.2192   -7.9486 N   0  0  0  0  0  0  0  0  0  0  0  0
  -29.1524   -7.2118   -7.1197 C   0  0  0  0  0  0  0  0  0  0  0  0
  -29.4211   -5.8991   -7.5150 C   0  0  0  0  0  0  0  0  0  0  0  0
  -29.1621   -4.8041   -6.6835 C   0  0  0  0  0  0  0  0  0  0  0  0
  -29.7352   -3.6739   -3.7078 C   0  0  0  0  0  0  0  0  0  0  0  0
  -29.6307   -2.9853   -2.6966 O   0  0  0  0  0  0  0  0  0  0  0  0
  -28.6228   -4.0470   -4.4234 N   0  0  0  0  0  0  0  0  0  0  0  0
  -27.7888   -3.9713   -3.8497 H   0  0  0  0  0  0  0  0  0  0  0  0
  -31.7110   -5.0547   -3.3874 C   0  0  0  0  0  0  0  0  0  0  0  0
  -31.0442   -4.1978   -4.1752 C   0  0  0  0  0  0  0  0  0  0  0  0
  -27.9196   -9.0632   -4.1888 N   0  0  0  0  0  0  0  0  0  0  0  0
  -28.6846   -9.1184   -3.5230 H   0  0  0  0  0  0  0  0  0  0  0  0
  -26.8096   -9.8445   -3.8140 C   0  0  0  0  0  0  0  0  0  0  0  0
  -25.5145   -9.3168   -3.7806 C   0  0  0  0  0  0  0  0  0  0  0  0
  -24.4639  -10.0395   -3.2089 C   0  0  0  0  0  0  0  0  0  0  0  0
  -24.7007  -11.3046   -2.6729 C   0  0  0  0  0  0  0  0  0  0  0  0
  -23.3019  -12.2253   -1.7987 Br  0  0  0  0  0  0  0  0  0  0  0  0
  -25.9676  -11.8739   -2.7394 C   0  0  0  0  0  0  0  0  0  0  0  0
  -27.0073  -11.1363   -3.3000 C   0  0  0  0  0  0  0  0  0  0  0  0
  -28.2396  -11.6705   -3.3262 F   0  0  0  0  0  0  0  0  0  0  0  0
  -29.5250   -3.5734   -7.1810 O   0  0  0  0  0  0  0  0  0  0  0  0
  -28.8994   -3.2404   -8.4304 C   0  0  0  0  0  0  0  0  0  0  0  0
  -27.6817   -2.3075   -8.2496 C   0  0  0  0  0  0  0  0  0  0  0  0
  -27.1659   -1.8355   -9.6120 C   0  0  0  0  0  0  0  0  0  0  0  0
  -28.0337   -1.1344   -7.4375 N   0  0  0  0  0  0  0  0  0  0  0  0
  -27.6822   -1.0122   -6.1135 C   0  0  0  0  0  0  0  0  0  0  0  0
  -28.2556    0.1970   -5.4237 C   0  0  0  0  0  0  0  0  0  0  0  0
  -27.0048   -1.8378   -5.5116 O   0  0  0  0  0  0  0  0  0  0  0  0
  -28.5363   -0.3754   -7.8803 H   0  0  0  0  0  0  0  0  0  0  0  0
 15 16  2  0  0  0
 16 11  1  0  0  0
 11 12  2  0  0  0
 11 13  1  0  0  0
 13  1  1  0  0  0
 13 14  1  0  0  0
  1  2  1  0  0  0
  1 10  2  0  0  0
  2  3  2  0  0  0
  3  4  1  0  0  0
  3  8  1  0  0  0
  4 17  1  0  0  0
  4  5  2  0  0  0
 17 19  1  0  0  0
 17 18  1  0  0  0
 19 20  1  0  0  0
 19 25  2  0  0  0
 20 21  2  0  0  0
 21 22  1  0  0  0
 22 23  1  0  0  0
 22 24  2  0  0  0
 24 25  1  0  0  0
 25 26  1  0  0  0
  5  6  1  0  0  0
  6  7  2  0  0  0
  7  8  1  0  0  0
  8  9  2  0  0  0
  9 10  1  0  0  0
 10 27  1  0  0  0
 27 28  1  0  0  0
 28 29  1  0  0  0
 29 30  1  0  0  0
 29 31  1  0  0  0
 31 32  1  0  0  0
 31 35  1  0  0  0
 32 33  1  0  0  0
 32 34  2  0  0  0
M  END
> <minimizedAffinity>
-8.36852

$$$$
