CHEMBL270342


 30 34  0  0  0  0  0  0  0  0999 V2000
  -14.6933   -1.3317  -12.7830 C   0  0  0  0  0  0  0  0  0  0  0  0
  -15.7199   -0.4369  -12.5026 C   0  0  0  0  0  0  0  0  0  0  0  0
  -16.1130    0.5152  -13.4520 C   0  0  0  0  0  0  0  0  0  0  0  0
  -15.4493    0.6508  -14.6993 C   0  0  0  0  0  0  0  0  0  0  0  0
  -15.7547    1.6046  -15.7195 C   0  0  0  0  0  0  0  0  0  0  0  0
  -15.0183    1.6266  -16.9206 C   0  0  0  0  0  0  0  0  0  0  0  0
  -13.9767    0.7337  -17.1334 C   0  0  0  0  0  0  0  0  0  0  0  0
  -13.6798   -0.2143  -16.1624 C   0  0  0  0  0  0  0  0  0  0  0  0
  -14.4047   -0.2774  -14.9630 C   0  0  0  0  0  0  0  0  0  0  0  0
  -14.0800   -1.2801  -14.0335 C   0  0  0  0  0  0  0  0  0  0  0  0
  -16.8966    2.5647  -15.6802 C   0  0  0  0  0  0  0  0  0  0  0  0
  -16.6618    3.7709  -15.6995 O   0  0  0  0  0  0  0  0  0  0  0  0
  -18.1735    2.0496  -15.5673 N   0  0  0  0  0  0  0  0  0  0  0  0
  -18.2984    1.0649  -15.3722 H   0  0  0  0  0  0  0  0  0  0  0  0
  -19.3224    2.9043  -15.5727 C   0  0  0  0  0  0  0  0  0  0  0  0
  -19.9592    3.3674  -14.2933 C   0  0  0  0  0  0  0  0  0  0  0  0
  -20.6687    2.3697  -15.1608 C   0  0  0  0  0  0  0  0  0  0  0  0
  -14.3701   -2.1988  -11.7628 O   0  0  0  0  0  0  0  0  0  0  0  0
  -12.4456   -6.9943  -11.6547 C   0  0  0  0  0  0  0  0  0  0  0  0
  -11.8142   -5.7613  -11.5895 C   0  0  0  0  0  0  0  0  0  0  0  0
  -12.5818   -4.5988  -11.5649 C   0  0  0  0  0  0  0  0  0  0  0  0
  -13.9901   -4.6429  -11.6800 C   0  0  0  0  0  0  0  0  0  0  0  0
  -14.8234   -3.5032  -11.7786 C   0  0  0  0  0  0  0  0  0  0  0  0
  -16.2071   -3.6491  -11.8114 C   0  0  0  0  0  0  0  0  0  0  0  0
  -16.7231   -4.9244  -11.8055 C   0  0  0  0  0  0  0  0  0  0  0  0
  -15.9625   -6.0403  -11.7813 N   0  0  0  0  0  0  0  0  0  0  0  0
  -14.6261   -5.9017  -11.7276 C   0  0  0  0  0  0  0  0  0  0  0  0
  -13.8404   -7.0514  -11.7170 C   0  0  0  0  0  0  0  0  0  0  0  0
  -12.6134   -9.3192  -12.0056 C   0  0  0  0  0  0  0  0  0  0  0  0
  -11.7969   -8.1989  -11.6783 O   0  0  0  0  0  0  0  0  0  0  0  0
 29 30  1  0  0  0
 30 19  1  0  0  0
 19 20  1  0  0  0
 19 28  2  0  0  0
 20 21  2  0  0  0
 21 22  1  0  0  0
 22 23  1  0  0  0
 22 27  2  0  0  0
 23 18  1  0  0  0
 23 24  2  0  0  0
 18  1  1  0  0  0
  1  2  1  0  0  0
  1 10  2  0  0  0
  2  3  2  0  0  0
  3  4  1  0  0  0
  4  5  1  0  0  0
  4  9  2  0  0  0
  5 11  1  0  0  0
  5  6  2  0  0  0
 11 12  2  0  0  0
 11 13  1  0  0  0
 13 15  1  0  0  0
 13 14  1  0  0  0
 15 16  1  0  0  0
 15 17  1  0  0  0
 16 17  1  0  0  0
  6  7  1  0  0  0
  7  8  2  0  0  0
  8  9  1  0  0  0
  9 10  1  0  0  0
 24 25  1  0  0  0
 25 26  2  0  0  0
 26 27  1  0  0  0
 27 28  1  0  0  0
M  END
> <minimizedAffinity>
-8.31620

$$$$
