CHEMBL3916485


 35 39  0  0  0  0  0  0  0  0999 V2000
  -28.3184   -7.1319   -5.2125 C   0  0  0  0  0  0  0  0  0  0  0  0
  -27.4784   -8.0873   -4.6270 C   0  0  0  0  0  0  0  0  0  0  0  0
  -27.8600   -9.4498   -4.5559 C   0  0  0  0  0  0  0  0  0  0  0  0
  -27.0825  -10.4890   -4.0289 C   0  0  0  0  0  0  0  0  0  0  0  0
  -27.4973  -11.7730   -4.0445 N   0  0  0  0  0  0  0  0  0  0  0  0
  -28.6920  -12.0219   -4.5737 C   0  0  0  0  0  0  0  0  0  0  0  0
  -29.5160  -11.1114   -5.0938 N   0  0  0  0  0  0  0  0  0  0  0  0
  -29.0898   -9.8483   -5.0780 C   0  0  0  0  0  0  0  0  0  0  0  0
  -29.9318   -8.8847   -5.5947 C   0  0  0  0  0  0  0  0  0  0  0  0
  -29.6045   -7.5230   -5.6151 C   0  0  0  0  0  0  0  0  0  0  0  0
  -27.4779   -5.1482   -4.2202 C   0  0  0  0  0  0  0  0  0  0  0  0
  -27.9421   -5.8280   -5.3930 O   0  0  0  0  0  0  0  0  0  0  0  0
  -25.8124  -10.1967   -3.4628 N   0  0  0  0  0  0  0  0  0  0  0  0
  -25.7971  -10.5075   -2.4956 H   0  0  0  0  0  0  0  0  0  0  0  0
  -24.5948  -10.4165   -4.1394 C   0  0  0  0  0  0  0  0  0  0  0  0
  -24.3912   -9.8779   -5.4173 C   0  0  0  0  0  0  0  0  0  0  0  0
  -23.2267  -10.1453   -6.1325 C   0  0  0  0  0  0  0  0  0  0  0  0
  -22.2378  -10.9515   -5.5700 C   0  0  0  0  0  0  0  0  0  0  0  0
  -20.8407  -11.2875   -6.5257 Cl  0  0  0  0  0  0  0  0  0  0  0  0
  -22.4113  -11.4642   -4.2785 C   0  0  0  0  0  0  0  0  0  0  0  0
  -21.2254  -12.4658   -3.5172 Cl  0  0  0  0  0  0  0  0  0  0  0  0
  -23.5819  -11.1882   -3.5624 C   0  0  0  0  0  0  0  0  0  0  0  0
  -30.5110   -6.5491   -6.0101 O   0  0  0  0  0  0  0  0  0  0  0  0
  -31.3253   -6.0777   -4.9216 C   0  0  0  0  0  0  0  0  0  0  0  0
  -31.0165   -4.6622   -4.5554 C   0  0  0  0  0  0  0  0  0  0  0  0
  -30.5052   -3.7966   -5.4078 N   0  0  0  0  0  0  0  0  0  0  0  0
  -30.0358   -2.6798   -4.7406 C   0  0  0  0  0  0  0  0  0  0  0  0
  -30.2418   -2.6949   -3.3756 C   0  0  0  0  0  0  0  0  0  0  0  0
  -31.0427   -4.1447   -2.9171 S   0  0  0  0  0  0  0  0  0  0  0  0
  -29.4006   -1.5986   -5.4796 C   0  0  0  0  0  0  0  0  0  0  0  0
  -29.7719   -0.2814   -5.1975 C   0  0  0  0  0  0  0  0  0  0  0  0
  -29.1543    0.7452   -5.8874 C   0  0  0  0  0  0  0  0  0  0  0  0
  -28.2158    0.5494   -6.8368 N   0  0  0  0  0  0  0  0  0  0  0  0
  -27.8905   -0.7314   -7.1131 C   0  0  0  0  0  0  0  0  0  0  0  0
  -28.4471   -1.8278   -6.4726 C   0  0  0  0  0  0  0  0  0  0  0  0
 11 12  1  0  0  0
 12  1  1  0  0  0
  1  2  1  0  0  0
  1 10  2  0  0  0
  2  3  2  0  0  0
  3  4  1  0  0  0
  3  8  1  0  0  0
  4 13  1  0  0  0
  4  5  2  0  0  0
 13 15  1  0  0  0
 13 14  1  0  0  0
 15 16  1  0  0  0
 15 22  2  0  0  0
 16 17  2  0  0  0
 17 18  1  0  0  0
 18 19  1  0  0  0
 18 20  2  0  0  0
 20 21  1  0  0  0
 20 22  1  0  0  0
  5  6  1  0  0  0
  6  7  2  0  0  0
  7  8  1  0  0  0
  8  9  2  0  0  0
  9 10  1  0  0  0
 10 23  1  0  0  0
 23 24  1  0  0  0
 24 25  1  0  0  0
 25 26  2  0  0  0
 25 29  1  0  0  0
 26 27  1  0  0  0
 27 30  1  0  0  0
 27 28  2  0  0  0
 30 31  1  0  0  0
 30 35  2  0  0  0
 31 32  2  0  0  0
 32 33  1  0  0  0
 33 34  2  0  0  0
 34 35  1  0  0  0
 28 29  1  0  0  0
M  END
> <minimizedAffinity>
-7.94445

$$$$
