CHEMBL400061


 27 30  0  0  0  0  0  0  0  0999 V2000
  -28.2887   -6.4907   -5.2719 C   0  0  0  0  0  0  0  0  0  0  0  0
  -29.1256   -5.7296   -4.5542 C   0  0  0  0  0  0  0  0  0  0  0  0
  -30.0660   -6.1505   -3.4943 C   0  0  0  0  0  0  0  0  0  0  0  0
  -30.1231   -7.1971   -2.8845 O   0  0  0  0  0  0  0  0  0  0  0  0
  -30.8734   -5.0314   -3.3480 N   0  0  0  0  0  0  0  0  0  0  0  0
  -30.4835   -3.9251   -4.0730 N   0  0  0  0  0  0  0  0  0  0  0  0
  -29.4260   -4.2896   -4.7616 C   0  0  0  0  0  0  0  0  0  0  0  0
  -31.6353   -4.9732   -2.6822 H   0  0  0  0  0  0  0  0  0  0  0  0
  -30.0624  -10.3852   -7.3091 C   0  0  0  0  0  0  0  0  0  0  0  0
  -29.2984  -11.4960   -6.9533 C   0  0  0  0  0  0  0  0  0  0  0  0
  -28.2345  -11.3841   -6.0562 C   0  0  0  0  0  0  0  0  0  0  0  0
  -27.9416  -10.1227   -5.5186 C   0  0  0  0  0  0  0  0  0  0  0  0
  -28.6680   -8.9709   -5.8588 C   0  0  0  0  0  0  0  0  0  0  0  0
  -28.0461   -7.8890   -5.1484 C   0  0  0  0  0  0  0  0  0  0  0  0
  -27.0148   -8.4006   -4.3924 C   0  0  0  0  0  0  0  0  0  0  0  0
  -26.9458   -9.7438   -4.6414 N   0  0  0  0  0  0  0  0  0  0  0  0
  -25.9279  -10.6312   -4.1212 C   0  0  0  0  0  0  0  0  0  0  0  0
  -29.7414   -9.1138   -6.7805 C   0  0  0  0  0  0  0  0  0  0  0  0
  -30.7754   -7.5935   -7.2928 Br  0  0  0  0  0  0  0  0  0  0  0  0
  -31.6310  -11.7489   -8.4626 C   0  0  0  0  0  0  0  0  0  0  0  0
  -31.0940  -10.4536   -8.2161 O   0  0  0  0  0  0  0  0  0  0  0  0
  -28.6889   -3.3487   -5.5521 C   0  0  0  0  0  0  0  0  0  0  0  0
  -27.8264   -2.0433   -4.8465 S   0  0  0  0  0  0  0  0  0  0  0  0
  -27.3412   -1.4273   -6.3156 N   0  0  0  0  0  0  0  0  0  0  0  0
  -27.8247   -2.1068   -7.3389 N   0  0  0  0  0  0  0  0  0  0  0  0
  -28.6109   -3.1810   -6.9295 C   0  0  0  0  0  0  0  0  0  0  0  0
  -29.2486   -4.0096   -7.9834 C   0  0  0  0  0  0  0  0  0  0  0  0
 20 21  1  0  0  0
 21  9  1  0  0  0
  9 10  1  0  0  0
  9 18  2  0  0  0
 10 11  2  0  0  0
 11 12  1  0  0  0
 12 13  2  0  0  0
 12 16  1  0  0  0
 13 14  1  0  0  0
 13 18  1  0  0  0
 14  1  1  0  0  0
 14 15  2  0  0  0
  1  2  2  0  0  0
  2  3  1  0  0  0
  2  7  1  0  0  0
  3  4  2  0  0  0
  3  5  1  0  0  0
  5  6  1  0  0  0
  5  8  1  0  0  0
  6  7  2  0  0  0
  7 22  1  0  0  0
 22 23  1  0  0  0
 22 26  2  0  0  0
 23 24  1  0  0  0
 24 25  2  0  0  0
 25 26  1  0  0  0
 26 27  1  0  0  0
 15 16  1  0  0  0
 16 17  1  0  0  0
 18 19  1  0  0  0
M  END
> <minimizedAffinity>
-7.80103

$$$$
