CHEMBL245574


 27 30  0  0  0  0  0  0  0  0999 V2000
  -28.4943   -2.8002   -7.0045 C   0  0  0  0  0  0  0  0  0  0  0  0
  -28.6767   -2.2837   -5.7779 N   0  0  0  0  0  0  0  0  0  0  0  0
  -28.2327   -1.0204   -5.8975 N   0  0  0  0  0  0  0  0  0  0  0  0
  -27.7917   -0.7059   -7.1496 C   0  0  0  0  0  0  0  0  0  0  0  0
  -27.9591   -1.8403   -7.9119 C   0  0  0  0  0  0  0  0  0  0  0  0
  -28.2672   -0.4185   -5.0809 H   0  0  0  0  0  0  0  0  0  0  0  0
  -30.5567   -8.4021   -7.7786 C   0  0  0  0  0  0  0  0  0  0  0  0
  -29.2878   -8.5784   -8.3419 C   0  0  0  0  0  0  0  0  0  0  0  0
  -28.3806   -7.5149   -8.4231 C   0  0  0  0  0  0  0  0  0  0  0  0
  -28.7626   -6.2664   -7.9218 C   0  0  0  0  0  0  0  0  0  0  0  0
  -28.0564   -5.0953   -7.8935 N   0  0  0  0  0  0  0  0  0  0  0  0
  -28.8436   -4.2235   -7.2976 C   0  0  0  0  0  0  0  0  0  0  0  0
  -30.0446   -4.7962   -6.9573 N   0  0  0  0  0  0  0  0  0  0  0  0
  -30.0195   -6.1096   -7.3535 C   0  0  0  0  0  0  0  0  0  0  0  0
  -30.9468   -7.1523   -7.2683 C   0  0  0  0  0  0  0  0  0  0  0  0
  -30.7921   -4.3056   -6.4915 H   0  0  0  0  0  0  0  0  0  0  0  0
  -32.8352   -8.9500   -7.3768 C   0  0  0  0  0  0  0  0  0  0  0  0
  -31.5098   -9.3824   -7.6641 O   0  0  0  0  0  0  0  0  0  0  0  0
  -27.6988   -1.9820   -9.3105 C   0  0  0  0  0  0  0  0  0  0  0  0
  -26.5752   -1.6298   -9.9555 C   0  0  0  0  0  0  0  0  0  0  0  0
  -26.4907   -1.6944  -11.4184 C   0  0  0  0  0  0  0  0  0  0  0  0
  -27.6750   -1.8154  -12.1488 C   0  0  0  0  0  0  0  0  0  0  0  0
  -27.7462   -1.8725  -13.4989 N   0  0  0  0  0  0  0  0  0  0  0  0
  -26.5734   -1.8147  -14.1592 C   0  0  0  0  0  0  0  0  0  0  0  0
  -25.3399   -1.7077  -13.5341 C   0  0  0  0  0  0  0  0  0  0  0  0
  -25.2847   -1.6555  -12.1334 C   0  0  0  0  0  0  0  0  0  0  0  0
  -23.9522   -1.5496  -11.4496 C   0  0  0  0  0  0  0  0  0  0  0  0
 17 18  1  0  0  0
 18  7  1  0  0  0
  7  8  1  0  0  0
  7 15  2  0  0  0
  8  9  2  0  0  0
  9 10  1  0  0  0
 10 11  1  0  0  0
 10 14  2  0  0  0
 11 12  2  0  0  0
 12  1  1  0  0  0
 12 13  1  0  0  0
  1  2  2  0  0  0
  1  5  1  0  0  0
  2  3  1  0  0  0
  3  4  1  0  0  0
  3  6  1  0  0  0
  4  5  2  0  0  0
  5 19  1  0  0  0
 19 20  2  0  0  0
 20 21  1  0  0  0
 21 22  1  0  0  0
 21 26  2  0  0  0
 22 23  2  0  0  0
 23 24  1  0  0  0
 24 25  2  0  0  0
 25 26  1  0  0  0
 26 27  1  0  0  0
 13 14  1  0  0  0
 13 16  1  0  0  0
 14 15  1  0  0  0
M  END
> <minimizedAffinity>
-8.78929

$$$$
