CHEMBL3910302


 40 43  0  0  0  0  0  0  0  0999 V2000
  -25.4197   -1.8601  -12.1777 C   0  0  0  0  0  0  0  0  0  0  0  0
  -25.5204   -1.5114  -13.5286 C   0  0  0  0  0  0  0  0  0  0  0  0
  -24.4009   -1.0659  -14.2306 C   0  0  0  0  0  0  0  0  0  0  0  0
  -23.1811   -0.9018  -13.5709 C   0  0  0  0  0  0  0  0  0  0  0  0
  -23.0735   -1.2663  -12.2253 C   0  0  0  0  0  0  0  0  0  0  0  0
  -24.1966   -1.7221  -11.5196 C   0  0  0  0  0  0  0  0  0  0  0  0
  -27.7790   -2.7623   -9.5793 N   0  0  0  0  0  0  0  0  0  0  0  0
  -26.7209   -2.0819  -10.1575 C   0  0  0  0  0  0  0  0  0  0  0  0
  -26.0428   -1.2266   -9.6044 O   0  0  0  0  0  0  0  0  0  0  0  0
  -26.5360   -2.4152  -11.4997 N   0  0  0  0  0  0  0  0  0  0  0  0
  -28.3682   -3.3008  -10.1954 H   0  0  0  0  0  0  0  0  0  0  0  0
  -27.3915   -2.4739  -12.0297 H   0  0  0  0  0  0  0  0  0  0  0  0
  -27.9245    0.1285   -5.5641 C   0  0  0  0  0  0  0  0  0  0  0  0
  -28.2512   -1.1702   -6.2435 C   0  0  0  0  0  0  0  0  0  0  0  0
  -28.8858   -2.1878   -5.5239 C   0  0  0  0  0  0  0  0  0  0  0  0
  -29.2211   -3.3780   -6.1548 C   0  0  0  0  0  0  0  0  0  0  0  0
  -28.9101   -3.5688   -7.4983 C   0  0  0  0  0  0  0  0  0  0  0  0
  -29.3971   -4.6825   -8.0594 F   0  0  0  0  0  0  0  0  0  0  0  0
  -28.2126   -2.5983   -8.2352 C   0  0  0  0  0  0  0  0  0  0  0  0
  -27.9199   -1.3803   -7.5980 C   0  0  0  0  0  0  0  0  0  0  0  0
  -22.0370   -0.4327  -14.1847 O   0  0  0  0  0  0  0  0  0  0  0  0
  -21.8270    0.9339  -14.2582 C   0  0  0  0  0  0  0  0  0  0  0  0
  -22.7731    1.8743  -13.8434 C   0  0  0  0  0  0  0  0  0  0  0  0
  -22.5095    3.2177  -14.0139 C   0  0  0  0  0  0  0  0  0  0  0  0
  -21.3627    3.7234  -14.4944 N   0  0  0  0  0  0  0  0  0  0  0  0
  -20.3995    2.8157  -14.8031 C   0  0  0  0  0  0  0  0  0  0  0  0
  -19.0938    3.1524  -15.2563 C   0  0  0  0  0  0  0  0  0  0  0  0
  -18.2901    2.0488  -15.4589 C   0  0  0  0  0  0  0  0  0  0  0  0
  -19.1569    0.5991  -15.1664 S   0  0  0  0  0  0  0  0  0  0  0  0
  -20.5877    1.4368  -14.6996 C   0  0  0  0  0  0  0  0  0  0  0  0
  -16.8896    2.0646  -15.8618 C   0  0  0  0  0  0  0  0  0  0  0  0
  -16.3613    3.0347  -16.4026 O   0  0  0  0  0  0  0  0  0  0  0  0
  -16.1668    0.9235  -15.5805 N   0  0  0  0  0  0  0  0  0  0  0  0
  -16.6448    0.1573  -15.1219 H   0  0  0  0  0  0  0  0  0  0  0  0
  -14.7706    0.7707  -15.9452 C   0  0  0  0  0  0  0  0  0  0  0  0
  -13.9767    0.0527  -14.8628 C   0  0  0  0  0  0  0  0  0  0  0  0
  -14.8769   -0.2937  -13.7049 C   0  0  0  0  0  0  0  0  0  0  0  0
  -14.9512    0.3441  -12.6683 O   0  0  0  0  0  0  0  0  0  0  0  0
  -15.5754   -1.4358  -13.9004 O   0  0  0  0  0  0  0  0  0  0  0  0
  -15.4317   -1.8518  -14.7710 H   0  0  0  0  0  0  0  0  0  0  0  0
 13 14  1  0  0  0
 14 15  1  0  0  0
 14 20  2  0  0  0
 15 16  2  0  0  0
 16 17  1  0  0  0
 17 18  1  0  0  0
 17 19  2  0  0  0
 19  7  1  0  0  0
 19 20  1  0  0  0
  7  8  1  0  0  0
  7 11  1  0  0  0
  8  9  2  0  0  0
  8 10  1  0  0  0
 10  1  1  0  0  0
 10 12  1  0  0  0
  1  2  1  0  0  0
  1  6  2  0  0  0
  2  3  2  0  0  0
  3  4  1  0  0  0
  4 21  1  0  0  0
  4  5  2  0  0  0
 21 22  1  0  0  0
 22 23  1  0  0  0
 22 30  2  0  0  0
 23 24  2  0  0  0
 24 25  1  0  0  0
 25 26  2  0  0  0
 26 27  1  0  0  0
 26 30  1  0  0  0
 27 28  2  0  0  0
 28 31  1  0  0  0
 28 29  1  0  0  0
 31 32  2  0  0  0
 31 33  1  0  0  0
 33 35  1  0  0  0
 33 34  1  0  0  0
 35 36  1  0  0  0
 36 37  1  0  0  0
 37 38  2  0  0  0
 37 39  1  0  0  0
 39 40  1  0  0  0
 29 30  1  0  0  0
  5  6  1  0  0  0
M  END
> <minimizedAffinity>
-11.52486

$$$$
