CHEMBL3984709


 37 40  0  0  0  0  0  0  0  0999 V2000
  -18.8628    2.5478  -15.1342 C   0  0  0  0  0  0  0  0  0  0  0  0
  -17.8382    3.3288  -15.6533 C   0  0  0  0  0  0  0  0  0  0  0  0
  -16.6339    2.7177  -15.9965 C   0  0  0  0  0  0  0  0  0  0  0  0
  -16.4598    1.3564  -15.7558 C   0  0  0  0  0  0  0  0  0  0  0  0
  -17.5388    0.6542  -15.2434 C   0  0  0  0  0  0  0  0  0  0  0  0
  -18.7273    1.2199  -14.9157 N   0  0  0  0  0  0  0  0  0  0  0  0
  -22.2177    3.3903  -14.3245 O   0  0  0  0  0  0  0  0  0  0  0  0
  -21.2423    2.6455  -14.3939 C   0  0  0  0  0  0  0  0  0  0  0  0
  -21.1992    1.3374  -14.0002 N   0  0  0  0  0  0  0  0  0  0  0  0
  -20.0775    3.1781  -14.8678 N   0  0  0  0  0  0  0  0  0  0  0  0
  -20.2649    0.9315  -14.0170 H   0  0  0  0  0  0  0  0  0  0  0  0
  -20.1697    4.1586  -15.0913 H   0  0  0  0  0  0  0  0  0  0  0  0
  -22.2418    0.5758  -13.4521 C   0  0  0  0  0  0  0  0  0  0  0  0
  -22.3293    0.2681  -12.0988 C   0  0  0  0  0  0  0  0  0  0  0  0
  -23.3595   -0.5473  -11.6293 C   0  0  0  0  0  0  0  0  0  0  0  0
  -24.3105   -1.0765  -12.5085 C   0  0  0  0  0  0  0  0  0  0  0  0
  -25.5005   -2.1123  -11.8144 Cl  0  0  0  0  0  0  0  0  0  0  0  0
  -24.2596   -0.7624  -13.8708 C   0  0  0  0  0  0  0  0  0  0  0  0
  -23.2249    0.0920  -14.3219 C   0  0  0  0  0  0  0  0  0  0  0  0
  -25.2183   -1.2859  -14.9057 C   0  0  0  0  0  0  0  0  0  0  0  0
  -26.5418   -1.1265  -14.6494 F   0  0  0  0  0  0  0  0  0  0  0  0
  -25.0088   -0.7080  -16.1239 F   0  0  0  0  0  0  0  0  0  0  0  0
  -25.0527   -2.6262  -15.1135 F   0  0  0  0  0  0  0  0  0  0  0  0
  -15.3095    0.6529  -16.0218 O   0  0  0  0  0  0  0  0  0  0  0  0
  -14.5203    0.2510  -14.9651 C   0  0  0  0  0  0  0  0  0  0  0  0
  -13.5004    1.0344  -14.4341 C   0  0  0  0  0  0  0  0  0  0  0  0
  -12.7230    0.4830  -13.4437 C   0  0  0  0  0  0  0  0  0  0  0  0
  -12.9479   -0.7355  -12.9250 N   0  0  0  0  0  0  0  0  0  0  0  0
  -13.9898   -1.4546  -13.3741 C   0  0  0  0  0  0  0  0  0  0  0  0
  -14.8060   -0.9939  -14.3993 C   0  0  0  0  0  0  0  0  0  0  0  0
  -14.2776   -2.6936  -12.7843 N   0  0  0  0  0  0  0  0  0  0  0  0
  -15.1228   -2.8496  -11.7083 C   0  0  0  0  0  0  0  0  0  0  0  0
  -15.6764   -1.9833  -11.0509 O   0  0  0  0  0  0  0  0  0  0  0  0
  -13.8639   -3.5160  -13.1939 H   0  0  0  0  0  0  0  0  0  0  0  0
  -15.3817   -4.2820  -11.3578 C   0  0  0  0  0  0  0  0  0  0  0  0
  -15.3039   -5.3222  -12.4542 C   0  0  0  0  0  0  0  0  0  0  0  0
  -16.6339   -4.9769  -11.8525 C   0  0  0  0  0  0  0  0  0  0  0  0
  7  8  2  0  0  0
  8  9  1  0  0  0
  8 10  1  0  0  0
  9 13  1  0  0  0
  9 11  1  0  0  0
 13 14  1  0  0  0
 13 19  2  0  0  0
 14 15  2  0  0  0
 15 16  1  0  0  0
 16 17  1  0  0  0
 16 18  2  0  0  0
 18 20  1  0  0  0
 18 19  1  0  0  0
 20 21  1  0  0  0
 20 22  1  0  0  0
 20 23  1  0  0  0
 10  1  1  0  0  0
 10 12  1  0  0  0
  1  2  1  0  0  0
  1  6  2  0  0  0
  2  3  2  0  0  0
  3  4  1  0  0  0
  4 24  1  0  0  0
  4  5  2  0  0  0
 24 25  1  0  0  0
 25 26  1  0  0  0
 25 30  2  0  0  0
 26 27  2  0  0  0
 27 28  1  0  0  0
 28 29  2  0  0  0
 29 31  1  0  0  0
 29 30  1  0  0  0
 31 32  1  0  0  0
 31 34  1  0  0  0
 32 33  2  0  0  0
 32 35  1  0  0  0
 35 36  1  0  0  0
 35 37  1  0  0  0
 36 37  1  0  0  0
  5  6  1  0  0  0
M  END
> <minimizedAffinity>
-9.66278

$$$$
