CHEMBL3897763


 33 36  0  0  0  0  0  0  0  0999 V2000
  -29.3364   -7.6051   -7.8432 C   0  0  0  0  0  0  0  0  0  0  0  0
  -30.0521   -8.8158   -7.8991 C   0  0  0  0  0  0  0  0  0  0  0  0
  -29.4734   -9.9979   -8.4172 C   0  0  0  0  0  0  0  0  0  0  0  0
  -28.2270   -9.8890   -9.0621 C   0  0  0  0  0  0  0  0  0  0  0  0
  -27.2724  -10.6986   -9.7751 C   0  0  0  0  0  0  0  0  0  0  0  0
  -26.9393   -9.9593  -10.8571 N   0  0  0  0  0  0  0  0  0  0  0  0
  -26.8966   -8.7270  -10.3153 N   0  0  0  0  0  0  0  0  0  0  0  0
  -27.7038   -8.6089   -9.2177 C   0  0  0  0  0  0  0  0  0  0  0  0
  -28.0958   -7.5011   -8.4779 C   0  0  0  0  0  0  0  0  0  0  0  0
  -26.4287   -7.9803  -10.8296 H   0  0  0  0  0  0  0  0  0  0  0  0
  -29.8865   -6.3306   -7.2831 C   0  0  0  0  0  0  0  0  0  0  0  0
  -30.9864   -5.9355   -7.6646 O   0  0  0  0  0  0  0  0  0  0  0  0
  -28.7543   -3.3488   -5.2743 C   0  0  0  0  0  0  0  0  0  0  0  0
  -27.9824   -3.9729   -4.2904 C   0  0  0  0  0  0  0  0  0  0  0  0
  -27.7588   -5.3479   -4.3203 C   0  0  0  0  0  0  0  0  0  0  0  0
  -28.3266   -6.1240   -5.3219 C   0  0  0  0  0  0  0  0  0  0  0  0
  -29.1847   -5.5324   -6.2521 C   0  0  0  0  0  0  0  0  0  0  0  0
  -29.3773   -4.1402   -6.2422 C   0  0  0  0  0  0  0  0  0  0  0  0
  -28.2901   -1.0821   -6.1947 C   0  0  0  0  0  0  0  0  0  0  0  0
  -27.5303   -1.4183   -7.1022 O   0  0  0  0  0  0  0  0  0  0  0  0
  -28.9437   -1.9502   -5.3333 N   0  0  0  0  0  0  0  0  0  0  0  0
  -29.7026   -1.5723   -4.7802 H   0  0  0  0  0  0  0  0  0  0  0  0
  -30.1343    0.5981   -5.8800 C   0  0  0  0  0  0  0  0  0  0  0  0
  -28.6235    0.3894   -5.9521 C   0  0  0  0  0  0  0  0  0  0  0  0
  -27.9683    0.8685   -4.6553 C   0  0  0  0  0  0  0  0  0  0  0  0
  -26.1015  -11.3796   -9.2199 C   0  0  0  0  0  0  0  0  0  0  0  0
  -25.8481  -11.4509   -7.8982 C   0  0  0  0  0  0  0  0  0  0  0  0
  -24.5260  -11.1024   -7.3187 C   0  0  0  0  0  0  0  0  0  0  0  0
  -24.4404  -10.3058   -6.1583 C   0  0  0  0  0  0  0  0  0  0  0  0
  -23.2416  -10.2127   -5.4336 C   0  0  0  0  0  0  0  0  0  0  0  0
  -22.1191  -10.9167   -5.8567 C   0  0  0  0  0  0  0  0  0  0  0  0
  -22.1874  -11.7002   -7.0088 C   0  0  0  0  0  0  0  0  0  0  0  0
  -23.3900  -11.7989   -7.7241 C   0  0  0  0  0  0  0  0  0  0  0  0
 23 24  1  0  0  0
 24 25  1  0  0  0
 24 19  1  0  0  0
 19 20  2  0  0  0
 19 21  1  0  0  0
 21 13  1  0  0  0
 21 22  1  0  0  0
 13 14  1  0  0  0
 13 18  2  0  0  0
 14 15  2  0  0  0
 15 16  1  0  0  0
 16 17  2  0  0  0
 17 11  1  0  0  0
 17 18  1  0  0  0
 11 12  2  0  0  0
 11  1  1  0  0  0
  1  2  1  0  0  0
  1  9  2  0  0  0
  2  3  2  0  0  0
  3  4  1  0  0  0
  4  5  1  0  0  0
  4  8  2  0  0  0
  5 26  1  0  0  0
  5  6  2  0  0  0
 26 27  2  0  0  0
 27 28  1  0  0  0
 28 29  1  0  0  0
 28 33  2  0  0  0
 29 30  2  0  0  0
 30 31  1  0  0  0
 31 32  2  0  0  0
 32 33  1  0  0  0
  6  7  1  0  0  0
  7  8  1  0  0  0
  7 10  1  0  0  0
  8  9  1  0  0  0
M  END
> <minimizedAffinity>
-9.14435

$$$$
