CHEMBL3401990


 32 36  0  0  0  0  0  0  0  0999 V2000
  -30.0223   -7.9486   -7.8579 C   0  0  0  0  0  0  0  0  0  0  0  0
  -29.2510   -7.0559   -7.2171 N   0  0  0  0  0  0  0  0  0  0  0  0
  -29.8040   -6.4154   -6.1716 C   0  0  0  0  0  0  0  0  0  0  0  0
  -31.0727   -6.5732   -5.7373 N   0  0  0  0  0  0  0  0  0  0  0  0
  -31.8206   -7.4596   -6.4069 C   0  0  0  0  0  0  0  0  0  0  0  0
  -31.3407   -8.1745   -7.4723 C   0  0  0  0  0  0  0  0  0  0  0  0
  -32.0944   -9.1172   -8.0577 F   0  0  0  0  0  0  0  0  0  0  0  0
  -28.9647   -5.5677   -5.3455 C   0  0  0  0  0  0  0  0  0  0  0  0
  -27.9234   -6.0052   -4.5451 C   0  0  0  0  0  0  0  0  0  0  0  0
  -27.3459   -4.9113   -3.9530 N   0  0  0  0  0  0  0  0  0  0  0  0
  -28.0041   -3.7765   -4.3378 C   0  0  0  0  0  0  0  0  0  0  0  0
  -27.6811   -2.5308   -3.9362 N   0  0  0  0  0  0  0  0  0  0  0  0
  -28.4919   -1.5861   -4.4794 C   0  0  0  0  0  0  0  0  0  0  0  0
  -29.5542   -1.8328   -5.3431 C   0  0  0  0  0  0  0  0  0  0  0  0
  -30.2843   -0.8130   -5.8191 F   0  0  0  0  0  0  0  0  0  0  0  0
  -29.8486   -3.1258   -5.7180 C   0  0  0  0  0  0  0  0  0  0  0  0
  -29.0300   -4.1479   -5.2009 C   0  0  0  0  0  0  0  0  0  0  0  0
  -26.5534   -4.9193   -3.3300 H   0  0  0  0  0  0  0  0  0  0  0  0
  -29.5199   -8.6395   -8.9878 N   0  0  0  0  0  0  0  0  0  0  0  0
  -30.2908   -8.6786   -9.6545 H   0  0  0  0  0  0  0  0  0  0  0  0
  -27.3965   -9.8842   -8.5003 C   0  0  0  0  0  0  0  0  0  0  0  0
  -26.6499  -10.6597   -9.6264 C   0  0  0  0  0  0  0  0  0  0  0  0
  -27.0617  -12.1434   -9.6822 C   0  0  0  0  0  0  0  0  0  0  0  0
  -28.5892  -12.2601   -9.7365 C   0  0  0  0  0  0  0  0  0  0  0  0
  -29.2150  -10.8717   -9.9611 C   0  0  0  0  0  0  0  0  0  0  0  0
  -28.5626  -10.2657  -11.2235 C   0  0  0  0  0  0  0  0  0  0  0  0
  -27.0649  -10.0401  -10.9802 C   0  0  0  0  0  0  0  0  0  0  0  0
  -28.9308   -9.9755   -8.7164 C   0  0  0  0  0  0  0  0  0  0  0  0
  -25.2244  -10.7069   -6.8473 C   0  0  0  0  0  0  0  0  0  0  0  0
  -26.9782  -10.4489   -6.8254 S   0  0  0  0  0  0  0  0  0  0  0  0
  -27.6008  -11.7321   -6.5657 O   0  0  0  0  0  0  0  0  0  0  0  0
  -27.1741   -9.3529   -5.8982 O   0  0  0  0  0  0  0  0  0  0  0  0
 29 30  1  0  0  0
 30 31  2  0  0  0
 30 32  2  0  0  0
 30 21  1  0  0  0
 21 22  1  0  0  0
 21 28  1  0  0  0
 22 23  1  0  0  0
 22 27  1  0  0  0
 23 24  1  0  0  0
 24 25  1  0  0  0
 25 26  1  0  0  0
 25 28  1  0  0  0
 26 27  1  0  0  0
 28 19  1  0  0  0
 19  1  1  0  0  0
 19 20  1  0  0  0
  1  2  1  0  0  0
  1  6  2  0  0  0
  2  3  2  0  0  0
  3  8  1  0  0  0
  3  4  1  0  0  0
  8  9  2  0  0  0
  8 17  1  0  0  0
  9 10  1  0  0  0
 10 11  1  0  0  0
 10 18  1  0  0  0
 11 12  1  0  0  0
 11 17  2  0  0  0
 12 13  2  0  0  0
 13 14  1  0  0  0
 14 15  1  0  0  0
 14 16  2  0  0  0
 16 17  1  0  0  0
  4  5  2  0  0  0
  5  6  1  0  0  0
  6  7  1  0  0  0
M  END
> <minimizedAffinity>
-8.82903

$$$$
