CHEMBL410659


 37 43  0  0  0  0  0  0  0  0999 V2000
  -15.6432    4.8165  -16.0482 N   0  0  0  0  0  0  0  0  0  0  0  0
  -14.6363    3.9012  -15.9473 C   0  0  0  0  0  0  0  0  0  0  0  0
  -13.4224    4.3814  -16.1046 N   0  0  0  0  0  0  0  0  0  0  0  0
  -12.3422    3.5331  -15.9997 C   0  0  0  0  0  0  0  0  0  0  0  0
  -12.4444    2.2211  -15.7297 C   0  0  0  0  0  0  0  0  0  0  0  0
  -13.7090    1.6927  -15.5591 N   0  0  0  0  0  0  0  0  0  0  0  0
  -14.8341    2.4966  -15.6689 C   0  0  0  0  0  0  0  0  0  0  0  0
  -15.9040    1.6525  -15.4468 C   0  0  0  0  0  0  0  0  0  0  0  0
  -15.4456    0.3669  -15.1975 N   0  0  0  0  0  0  0  0  0  0  0  0
  -14.1317    0.4117  -15.2793 C   0  0  0  0  0  0  0  0  0  0  0  0
  -15.2857    5.7650  -16.0472 H   0  0  0  0  0  0  0  0  0  0  0  0
  -16.4245    4.6853  -15.4181 H   0  0  0  0  0  0  0  0  0  0  0  0
  -17.3353    1.9331  -15.3847 C   0  0  0  0  0  0  0  0  0  0  0  0
  -17.7407    3.2359  -15.6928 C   0  0  0  0  0  0  0  0  0  0  0  0
  -19.0585    3.6300  -15.4958 C   0  0  0  0  0  0  0  0  0  0  0  0
  -19.9940    2.7241  -14.9827 C   0  0  0  0  0  0  0  0  0  0  0  0
  -21.2841    3.1576  -14.6860 C   0  0  0  0  0  0  0  0  0  0  0  0
  -22.2034    2.2676  -14.1536 C   0  0  0  0  0  0  0  0  0  0  0  0
  -21.8342    0.9399  -13.9562 C   0  0  0  0  0  0  0  0  0  0  0  0
  -20.5759    0.4963  -14.2520 N   0  0  0  0  0  0  0  0  0  0  0  0
  -19.6504    1.3801  -14.7214 C   0  0  0  0  0  0  0  0  0  0  0  0
  -18.3063    1.0186  -14.9266 C   0  0  0  0  0  0  0  0  0  0  0  0
  -22.8209   -0.0292  -13.4183 C   0  0  0  0  0  0  0  0  0  0  0  0
  -22.6993   -0.5777  -12.1317 C   0  0  0  0  0  0  0  0  0  0  0  0
  -23.5795   -1.5741  -11.6780 C   0  0  0  0  0  0  0  0  0  0  0  0
  -24.6075   -2.0335  -12.4982 C   0  0  0  0  0  0  0  0  0  0  0  0
  -24.7650   -1.4928  -13.7685 C   0  0  0  0  0  0  0  0  0  0  0  0
  -23.8847   -0.5015  -14.2183 C   0  0  0  0  0  0  0  0  0  0  0  0
  -13.2313   -0.8030  -15.0122 C   0  0  0  0  0  0  0  0  0  0  0  0
  -12.6930   -0.9492  -13.5676 C   0  0  0  0  0  0  0  0  0  0  0  0
  -13.8085   -1.9910  -13.2692 C   0  0  0  0  0  0  0  0  0  0  0  0
  -13.9630   -2.1566  -14.8024 C   0  0  0  0  0  0  0  0  0  0  0  0
  -15.0353   -1.4792  -12.5042 C   0  0  0  0  0  0  0  0  0  0  0  0
  -15.3797   -2.3757  -11.3865 N   0  0  0  0  0  0  0  0  0  0  0  0
  -14.2792   -3.3626  -11.1964 C   0  0  0  0  0  0  0  0  0  0  0  0
  -15.3559   -4.4434  -11.0124 C   0  0  0  0  0  0  0  0  0  0  0  0
  -16.2528   -3.4959  -11.8308 C   0  0  0  0  0  0  0  0  0  0  0  0
  1  2  1  0  0  0
  1 11  1  0  0  0
  1 12  1  0  0  0
  2  3  2  0  0  0
  2  7  1  0  0  0
  3  4  1  0  0  0
  4  5  2  0  0  0
  5  6  1  0  0  0
  6  7  1  0  0  0
  6 10  1  0  0  0
  7  8  2  0  0  0
  8 13  1  0  0  0
  8  9  1  0  0  0
 13 14  1  0  0  0
 13 22  2  0  0  0
 14 15  2  0  0  0
 15 16  1  0  0  0
 16 17  1  0  0  0
 16 21  2  0  0  0
 17 18  2  0  0  0
 18 19  1  0  0  0
 19 23  1  0  0  0
 19 20  2  0  0  0
 23 24  1  0  0  0
 23 28  2  0  0  0
 24 25  2  0  0  0
 25 26  1  0  0  0
 26 27  2  0  0  0
 27 28  1  0  0  0
 20 21  1  0  0  0
 21 22  1  0  0  0
  9 10  2  0  0  0
 29 30  1  0  0  0
 29 32  1  0  0  0
 29 10  1  0  0  0
 30 31  1  0  0  0
 31 33  1  0  0  0
 31 32  1  0  0  0
 33 34  1  0  0  0
 34 35  1  0  0  0
 34 37  1  0  0  0
 35 36  1  0  0  0
 36 37  1  0  0  0
M  END
> <minimizedAffinity>
-11.29203

$$$$
