CHEMBL4794056


 44 49  0  0  0  0  0  0  0  0999 V2000
  -27.8346   -9.1329   -3.7833 C   0  0  0  0  0  0  0  0  0  0  0  0
  -26.9540   -9.8768   -3.1139 N   0  0  0  0  0  0  0  0  0  0  0  0
  -26.4713  -10.9433   -3.7741 C   0  0  0  0  0  0  0  0  0  0  0  0
  -26.8346  -11.2459   -5.0731 C   0  0  0  0  0  0  0  0  0  0  0  0
  -27.7283  -10.4085   -5.7084 C   0  0  0  0  0  0  0  0  0  0  0  0
  -28.2859   -9.3947   -5.0201 N   0  0  0  0  0  0  0  0  0  0  0  0
  -29.0251   -5.7900   -3.1861 N   0  0  0  0  0  0  0  0  0  0  0  0
  -28.2684   -6.7959   -3.8015 C   0  0  0  0  0  0  0  0  0  0  0  0
  -27.5963   -6.6584   -4.8183 O   0  0  0  0  0  0  0  0  0  0  0  0
  -28.4408   -8.0193   -3.1725 N   0  0  0  0  0  0  0  0  0  0  0  0
  -29.5098   -6.0476   -2.3383 H   0  0  0  0  0  0  0  0  0  0  0  0
  -29.4149   -8.2140   -3.0343 H   0  0  0  0  0  0  0  0  0  0  0  0
  -31.7454   -4.6535   -3.6948 C   0  0  0  0  0  0  0  0  0  0  0  0
  -30.4519   -3.9005   -3.8910 C   0  0  0  0  0  0  0  0  0  0  0  0
  -30.5616   -2.5712   -4.3668 C   0  0  0  0  0  0  0  0  0  0  0  0
  -29.4267   -1.7971   -4.5913 C   0  0  0  0  0  0  0  0  0  0  0  0
  -29.5769   -0.1949   -5.1952 Cl  0  0  0  0  0  0  0  0  0  0  0  0
  -28.1728   -2.3208   -4.3283 C   0  0  0  0  0  0  0  0  0  0  0  0
  -28.0540   -3.6260   -3.8495 C   0  0  0  0  0  0  0  0  0  0  0  0
  -29.1736   -4.4485   -3.6366 C   0  0  0  0  0  0  0  0  0  0  0  0
  -28.0880  -10.5707   -7.0341 N   0  0  0  0  0  0  0  0  0  0  0  0
  -27.6772   -9.6505   -8.1063 C   0  0  0  0  0  0  0  0  0  0  0  0
  -28.8985   -9.1275   -8.8972 C   0  0  0  0  0  0  0  0  0  0  0  0
  -29.8015  -10.1742   -9.4230 N   0  0  0  0  0  0  0  0  0  0  0  0
  -30.2341  -10.9940   -8.2616 C   0  0  0  0  0  0  0  0  0  0  0  0
  -29.0890  -11.5895   -7.4008 C   0  0  0  0  0  0  0  0  0  0  0  0
  -29.1704  -11.0314  -10.4436 C   0  0  0  0  0  0  0  0  0  0  0  0
  -28.4324  -10.2961  -11.5435 C   0  0  0  0  0  0  0  0  0  0  0  0
  -27.1963   -9.6847  -11.2775 C   0  0  0  0  0  0  0  0  0  0  0  0
  -26.4769   -9.0581  -12.2965 C   0  0  0  0  0  0  0  0  0  0  0  0
  -26.9833   -9.0378  -13.5940 C   0  0  0  0  0  0  0  0  0  0  0  0
  -28.2123   -9.6345  -13.8704 C   0  0  0  0  0  0  0  0  0  0  0  0
  -28.9368  -10.2567  -12.8503 C   0  0  0  0  0  0  0  0  0  0  0  0
  -25.3939  -12.0827   -2.9054 S   0  0  0  0  0  0  0  0  0  0  0  0
  -23.7770  -11.7235   -3.4772 C   0  0  0  0  0  0  0  0  0  0  0  0
  -22.7220  -11.2273   -2.7497 C   0  0  0  0  0  0  0  0  0  0  0  0
  -21.6367  -11.1432   -3.5779 N   0  0  0  0  0  0  0  0  0  0  0  0
  -21.9694  -11.5572   -4.8482 C   0  0  0  0  0  0  0  0  0  0  0  0
  -21.1754  -11.6436   -6.0004 C   0  0  0  0  0  0  0  0  0  0  0  0
  -21.7774  -12.1046   -7.1734 C   0  0  0  0  0  0  0  0  0  0  0  0
  -23.1224  -12.4622   -7.1913 C   0  0  0  0  0  0  0  0  0  0  0  0
  -23.9027  -12.3743   -6.0290 C   0  0  0  0  0  0  0  0  0  0  0  0
  -23.3202  -11.9181   -4.8234 C   0  0  0  0  0  0  0  0  0  0  0  0
  -20.7174  -10.8349   -3.2985 H   0  0  0  0  0  0  0  0  0  0  0  0
 13 14  1  0  0  0
 14 15  1  0  0  0
 14 20  2  0  0  0
 15 16  2  0  0  0
 16 17  1  0  0  0
 16 18  1  0  0  0
 18 19  2  0  0  0
 19 20  1  0  0  0
 20  7  1  0  0  0
  7  8  1  0  0  0
  7 11  1  0  0  0
  8  9  2  0  0  0
  8 10  1  0  0  0
 10  1  1  0  0  0
 10 12  1  0  0  0
  1  2  1  0  0  0
  1  6  2  0  0  0
  2  3  2  0  0  0
  3 34  1  0  0  0
  3  4  1  0  0  0
 34 35  1  0  0  0
 35 36  2  0  0  0
 35 43  1  0  0  0
 36 37  1  0  0  0
 37 38  1  0  0  0
 37 44  1  0  0  0
 38 39  1  0  0  0
 38 43  2  0  0  0
 39 40  2  0  0  0
 40 41  1  0  0  0
 41 42  2  0  0  0
 42 43  1  0  0  0
  4  5  2  0  0  0
  5 21  1  0  0  0
  5  6  1  0  0  0
 21 22  1  0  0  0
 21 26  1  0  0  0
 22 23  1  0  0  0
 23 24  1  0  0  0
 24 27  1  0  0  0
 24 25  1  0  0  0
 27 28  1  0  0  0
 28 29  1  0  0  0
 28 33  2  0  0  0
 29 30  2  0  0  0
 30 31  1  0  0  0
 31 32  2  0  0  0
 32 33  1  0  0  0
 25 26  1  0  0  0
M  END
> <minimizedAffinity>
-9.84088

$$$$
