CHEMBL401040


 30 32  0  0  0  0  0  0  0  0999 V2000
  -29.5510   -2.4906   -5.1060 C   0  0  0  0  0  0  0  0  0  0  0  0
  -28.8465   -2.1344   -6.3216 N   0  0  0  0  0  0  0  0  0  0  0  0
  -28.1981   -0.9538   -6.3665 N   0  0  0  0  0  0  0  0  0  0  0  0
  -27.5999   -0.9771   -7.5541 C   0  0  0  0  0  0  0  0  0  0  0  0
  -27.8560   -2.1660   -8.2684 C   0  0  0  0  0  0  0  0  0  0  0  0
  -28.6748   -2.9143   -7.4460 C   0  0  0  0  0  0  0  0  0  0  0  0
  -29.3011   -4.2091   -7.5956 C   0  0  0  0  0  0  0  0  0  0  0  0
  -30.4475   -4.3164   -8.0275 O   0  0  0  0  0  0  0  0  0  0  0  0
  -28.5593   -5.2788   -7.1419 N   0  0  0  0  0  0  0  0  0  0  0  0
  -27.7796   -5.0678   -6.5276 H   0  0  0  0  0  0  0  0  0  0  0  0
  -28.9905   -6.6171   -7.2399 C   0  0  0  0  0  0  0  0  0  0  0  0
  -28.6551   -7.4206   -8.3359 C   0  0  0  0  0  0  0  0  0  0  0  0
  -29.1129   -8.7419   -8.4242 C   0  0  0  0  0  0  0  0  0  0  0  0
  -29.9205   -9.2637   -7.4179 C   0  0  0  0  0  0  0  0  0  0  0  0
  -30.2612   -8.4522   -6.3297 C   0  0  0  0  0  0  0  0  0  0  0  0
  -29.7655   -7.1506   -6.2152 C   0  0  0  0  0  0  0  0  0  0  0  0
  -30.4766  -10.5047   -7.3838 O   0  0  0  0  0  0  0  0  0  0  0  0
  -31.7741  -10.7136   -7.9181 C   0  0  0  0  0  0  0  0  0  0  0  0
  -32.7271  -10.8971   -6.9797 F   0  0  0  0  0  0  0  0  0  0  0  0
  -32.1134   -9.6184   -8.6364 F   0  0  0  0  0  0  0  0  0  0  0  0
  -31.7625  -11.7750   -8.7511 F   0  0  0  0  0  0  0  0  0  0  0  0
  -27.3581   -2.4376   -9.5069 N   0  0  0  0  0  0  0  0  0  0  0  0
  -26.3822   -2.7264   -9.5387 H   0  0  0  0  0  0  0  0  0  0  0  0
  -27.6663   -1.6236  -10.6757 C   0  0  0  0  0  0  0  0  0  0  0  0
  -26.4996   -1.5941  -11.6371 C   0  0  0  0  0  0  0  0  0  0  0  0
  -25.1935   -1.5313  -11.1426 C   0  0  0  0  0  0  0  0  0  0  0  0
  -24.1364   -1.4850  -12.0412 C   0  0  0  0  0  0  0  0  0  0  0  0
  -24.2863   -1.5306  -13.3788 N   0  0  0  0  0  0  0  0  0  0  0  0
  -25.5488   -1.6247  -13.8418 C   0  0  0  0  0  0  0  0  0  0  0  0
  -26.6717   -1.6642  -13.0262 C   0  0  0  0  0  0  0  0  0  0  0  0
  1  2  1  0  0  0
  2  3  1  0  0  0
  2  6  1  0  0  0
  3  4  2  0  0  0
  4  5  1  0  0  0
  5 22  1  0  0  0
  5  6  2  0  0  0
 22 24  1  0  0  0
 22 23  1  0  0  0
 24 25  1  0  0  0
 25 26  1  0  0  0
 25 30  2  0  0  0
 26 27  2  0  0  0
 27 28  1  0  0  0
 28 29  2  0  0  0
 29 30  1  0  0  0
  6  7  1  0  0  0
  7  8  2  0  0  0
  7  9  1  0  0  0
  9 11  1  0  0  0
  9 10  1  0  0  0
 11 12  1  0  0  0
 11 16  2  0  0  0
 12 13  2  0  0  0
 13 14  1  0  0  0
 14 17  1  0  0  0
 14 15  2  0  0  0
 17 18  1  0  0  0
 18 19  1  0  0  0
 18 20  1  0  0  0
 18 21  1  0  0  0
 15 16  1  0  0  0
M  END
> <minimizedAffinity>
-8.07178

$$$$
