CHEMBL1095357


 51 56  0  0  0  0  0  0  0  0999 V2000
  -22.5622    1.5701  -13.5446 C   0  0  0  0  0  0  0  0  0  0  0  0
  -22.3491    2.8738  -13.9841 C   0  0  0  0  0  0  0  0  0  0  0  0
  -21.1510    3.2121  -14.6114 C   0  0  0  0  0  0  0  0  0  0  0  0
  -20.1754    2.2455  -14.8689 C   0  0  0  0  0  0  0  0  0  0  0  0
  -20.4157    0.9241  -14.4821 C   0  0  0  0  0  0  0  0  0  0  0  0
  -21.6027    0.5991  -13.8236 C   0  0  0  0  0  0  0  0  0  0  0  0
  -21.8092   -0.6755  -13.4587 F   0  0  0  0  0  0  0  0  0  0  0  0
  -18.9777    2.5342  -15.5571 N   0  0  0  0  0  0  0  0  0  0  0  0
  -17.7004    2.4653  -15.0268 C   0  0  0  0  0  0  0  0  0  0  0  0
  -17.3819    1.9726  -13.9543 O   0  0  0  0  0  0  0  0  0  0  0  0
  -19.0832    2.9091  -16.4923 H   0  0  0  0  0  0  0  0  0  0  0  0
  -16.6905    3.0892  -15.8579 C   0  0  0  0  0  0  0  0  0  0  0  0
  -16.5377    4.4333  -16.2174 C   0  0  0  0  0  0  0  0  0  0  0  0
  -15.4276    4.6456  -16.9146 N   0  0  0  0  0  0  0  0  0  0  0  0
  -14.8896    3.4084  -17.1217 N   0  0  0  0  0  0  0  0  0  0  0  0
  -15.6190    2.4377  -16.4594 C   0  0  0  0  0  0  0  0  0  0  0  0
  -13.6888    3.3100  -17.8837 C   0  0  0  0  0  0  0  0  0  0  0  0
  -12.4588    3.4551  -17.2209 C   0  0  0  0  0  0  0  0  0  0  0  0
  -11.2601    3.2761  -17.9136 C   0  0  0  0  0  0  0  0  0  0  0  0
  -11.2765    2.9774  -19.2742 C   0  0  0  0  0  0  0  0  0  0  0  0
  -12.4896    2.8854  -19.9490 C   0  0  0  0  0  0  0  0  0  0  0  0
  -13.6919    3.0631  -19.2598 C   0  0  0  0  0  0  0  0  0  0  0  0
  -15.1820    1.0341  -16.3300 C   0  0  0  0  0  0  0  0  0  0  0  0
  -16.0776    0.2504  -15.6798 F   0  0  0  0  0  0  0  0  0  0  0  0
  -14.9650    0.4474  -17.5319 F   0  0  0  0  0  0  0  0  0  0  0  0
  -14.0347    0.9286  -15.6125 F   0  0  0  0  0  0  0  0  0  0  0  0
  -23.6897    1.1537  -12.8826 O   0  0  0  0  0  0  0  0  0  0  0  0
  -26.6722   -1.7127  -10.8432 C   0  0  0  0  0  0  0  0  0  0  0  0
  -26.8657   -2.2460  -12.1040 C   0  0  0  0  0  0  0  0  0  0  0  0
  -26.0783   -1.6149  -13.1049 C   0  0  0  0  0  0  0  0  0  0  0  0
  -26.0944   -1.9336  -14.4265 N   0  0  0  0  0  0  0  0  0  0  0  0
  -25.3086   -1.1796  -15.2158 C   0  0  0  0  0  0  0  0  0  0  0  0
  -24.5038   -0.1439  -14.7829 C   0  0  0  0  0  0  0  0  0  0  0  0
  -24.4472    0.1380  -13.4187 C   0  0  0  0  0  0  0  0  0  0  0  0
  -25.2784   -0.6076  -12.5755 C   0  0  0  0  0  0  0  0  0  0  0  0
  -25.4813   -0.4827  -10.8800 S   0  0  0  0  0  0  0  0  0  0  0  0
  -28.5938   -2.7561   -7.1562 C   0  0  0  0  0  0  0  0  0  0  0  0
  -28.1407   -1.4597   -7.3859 C   0  0  0  0  0  0  0  0  0  0  0  0
  -27.5475   -1.1240   -8.6032 C   0  0  0  0  0  0  0  0  0  0  0  0
  -27.3042   -2.1003   -9.5765 C   0  0  0  0  0  0  0  0  0  0  0  0
  -27.6591   -3.4270   -9.2904 C   0  0  0  0  0  0  0  0  0  0  0  0
  -28.3128   -3.7511   -8.0985 C   0  0  0  0  0  0  0  0  0  0  0  0
  -28.6879   -3.7435   -4.8457 N   0  0  0  0  0  0  0  0  0  0  0  0
  -27.2446   -3.8119   -4.6688 C   0  0  0  0  0  0  0  0  0  0  0  0
  -29.3436   -3.1443   -5.9274 C   0  0  0  0  0  0  0  0  0  0  0  0
  -30.5518   -2.8828   -5.9072 O   0  0  0  0  0  0  0  0  0  0  0  0
  -29.5093   -4.0403   -3.6600 C   0  0  0  0  0  0  0  0  0  0  0  0
  -29.6713   -5.5433   -3.3768 C   0  0  0  0  0  0  0  0  0  0  0  0
  -32.0516   -5.0524   -3.4775 C   0  0  0  0  0  0  0  0  0  0  0  0
  -31.0171   -6.0670   -3.7068 N   0  0  0  0  0  0  0  0  0  0  0  0
  -31.0465   -6.4735   -5.1157 C   0  0  0  0  0  0  0  0  0  0  0  0
 49 50  1  0  0  0
 50 51  1  0  0  0
 50 48  1  0  0  0
 48 47  1  0  0  0
 47 43  1  0  0  0
 43 44  1  0  0  0
 43 45  1  0  0  0
 45 46  2  0  0  0
 45 37  1  0  0  0
 37 38  1  0  0  0
 37 42  2  0  0  0
 38 39  2  0  0  0
 39 40  1  0  0  0
 40 28  1  0  0  0
 40 41  2  0  0  0
 28 29  2  0  0  0
 28 36  1  0  0  0
 29 30  1  0  0  0
 30 31  1  0  0  0
 30 35  2  0  0  0
 31 32  2  0  0  0
 32 33  1  0  0  0
 33 34  2  0  0  0
 34 27  1  0  0  0
 34 35  1  0  0  0
 27  1  1  0  0  0
  1  2  1  0  0  0
  1  6  2  0  0  0
  2  3  2  0  0  0
  3  4  1  0  0  0
  4  8  1  0  0  0
  4  5  2  0  0  0
  8  9  1  0  0  0
  8 11  1  0  0  0
  9 10  2  0  0  0
  9 12  1  0  0  0
 12 13  1  0  0  0
 12 16  2  0  0  0
 13 14  2  0  0  0
 14 15  1  0  0  0
 15 17  1  0  0  0
 15 16  1  0  0  0
 17 18  1  0  0  0
 17 22  2  0  0  0
 18 19  2  0  0  0
 19 20  1  0  0  0
 20 21  2  0  0  0
 21 22  1  0  0  0
 16 23  1  0  0  0
 23 24  1  0  0  0
 23 25  1  0  0  0
 23 26  1  0  0  0
  5  6  1  0  0  0
  6  7  1  0  0  0
 35 36  1  0  0  0
 41 42  1  0  0  0
M  END
> <minimizedAffinity>
-8.77640

$$$$
