CHEMBL2204528


 39 42  0  0  0  0  0  0  0  0999 V2000
  -25.1251   -1.2173  -12.5104 C   0  0  0  0  0  0  0  0  0  0  0  0
  -25.6382   -1.1377  -11.2053 C   0  0  0  0  0  0  0  0  0  0  0  0
  -26.9752   -1.3914  -10.9004 C   0  0  0  0  0  0  0  0  0  0  0  0
  -27.8244   -1.7802  -11.9324 C   0  0  0  0  0  0  0  0  0  0  0  0
  -27.3451   -1.8483  -13.2484 C   0  0  0  0  0  0  0  0  0  0  0  0
  -26.0002   -1.5634  -13.5504 C   0  0  0  0  0  0  0  0  0  0  0  0
  -25.5072   -1.6871  -14.9643 C   0  0  0  0  0  0  0  0  0  0  0  0
  -27.4820   -1.2845   -9.5823 N   0  0  0  0  0  0  0  0  0  0  0  0
  -27.6028   -2.3532   -8.7024 C   0  0  0  0  0  0  0  0  0  0  0  0
  -27.2197   -3.4981   -8.9066 O   0  0  0  0  0  0  0  0  0  0  0  0
  -27.6379   -0.3499   -9.2331 H   0  0  0  0  0  0  0  0  0  0  0  0
  -28.1992   -2.0815   -7.3693 C   0  0  0  0  0  0  0  0  0  0  0  0
  -27.8918   -0.9468   -6.6181 C   0  0  0  0  0  0  0  0  0  0  0  0
  -28.5927   -0.7037   -5.4392 C   0  0  0  0  0  0  0  0  0  0  0  0
  -29.5875   -1.5883   -5.0072 C   0  0  0  0  0  0  0  0  0  0  0  0
  -29.8801   -2.7458   -5.7269 C   0  0  0  0  0  0  0  0  0  0  0  0
  -29.1877   -2.9756   -6.9143 C   0  0  0  0  0  0  0  0  0  0  0  0
  -30.8286   -3.6851   -5.4232 O   0  0  0  0  0  0  0  0  0  0  0  0
  -30.5048   -4.8426   -4.6083 C   0  0  0  0  0  0  0  0  0  0  0  0
  -31.5207   -4.8655   -3.4498 C   0  0  0  0  0  0  0  0  0  0  0  0
  -30.6325   -6.1320   -5.4337 C   0  0  0  0  0  0  0  0  0  0  0  0
  -29.1776   -4.7431   -3.9687 C   0  0  0  0  0  0  0  0  0  0  0  0
  -28.1237   -4.6381   -3.4856 N   0  0  0  0  0  0  0  0  0  0  0  0
  -23.7461   -1.0566  -12.7285 N   0  0  0  0  0  0  0  0  0  0  0  0
  -23.1473   -1.8578  -12.6229 H   0  0  0  0  0  0  0  0  0  0  0  0
  -19.9537    2.7005  -15.2119 C   0  0  0  0  0  0  0  0  0  0  0  0
  -21.0017    3.2531  -14.6612 N   0  0  0  0  0  0  0  0  0  0  0  0
  -21.8269    2.2592  -14.1859 C   0  0  0  0  0  0  0  0  0  0  0  0
  -23.0310    2.3752  -13.5152 C   0  0  0  0  0  0  0  0  0  0  0  0
  -23.6545    1.2628  -13.0801 N   0  0  0  0  0  0  0  0  0  0  0  0
  -23.1010    0.0467  -13.2873 C   0  0  0  0  0  0  0  0  0  0  0  0
  -21.9446   -0.1728  -13.9338 N   0  0  0  0  0  0  0  0  0  0  0  0
  -21.3759    0.9624  -14.3804 C   0  0  0  0  0  0  0  0  0  0  0  0
  -19.9323    0.9929  -15.2972 S   0  0  0  0  0  0  0  0  0  0  0  0
  -16.5019    3.7522  -15.9848 C   0  0  0  0  0  0  0  0  0  0  0  0
  -17.5809    2.9577  -15.2990 C   0  0  0  0  0  0  0  0  0  0  0  0
  -17.2912    2.0842  -14.4888 O   0  0  0  0  0  0  0  0  0  0  0  0
  -18.8440    3.3177  -15.7205 N   0  0  0  0  0  0  0  0  0  0  0  0
  -18.9707    3.9137  -16.5241 H   0  0  0  0  0  0  0  0  0  0  0  0
 35 36  1  0  0  0
 36 37  2  0  0  0
 36 38  1  0  0  0
 38 26  1  0  0  0
 38 39  1  0  0  0
 26 27  2  0  0  0
 26 34  1  0  0  0
 27 28  1  0  0  0
 28 29  1  0  0  0
 28 33  2  0  0  0
 29 30  2  0  0  0
 30 31  1  0  0  0
 31 24  1  0  0  0
 31 32  2  0  0  0
 24  1  1  0  0  0
 24 25  1  0  0  0
  1  2  1  0  0  0
  1  6  2  0  0  0
  2  3  2  0  0  0
  3  8  1  0  0  0
  3  4  1  0  0  0
  8  9  1  0  0  0
  8 11  1  0  0  0
  9 10  2  0  0  0
  9 12  1  0  0  0
 12 13  1  0  0  0
 12 17  2  0  0  0
 13 14  2  0  0  0
 14 15  1  0  0  0
 15 16  2  0  0  0
 16 18  1  0  0  0
 16 17  1  0  0  0
 18 19  1  0  0  0
 19 20  1  0  0  0
 19 21  1  0  0  0
 19 22  1  0  0  0
 22 23  3  0  0  0
  4  5  2  0  0  0
  5  6  1  0  0  0
  6  7  1  0  0  0
 32 33  1  0  0  0
 33 34  1  0  0  0
M  END
> <minimizedAffinity>
-10.78284

$$$$
