CHEMBL369751


 26 28  0  0  0  0  0  0  0  0999 V2000
  -29.3797   -4.7158   -6.7210 C   0  0  0  0  0  0  0  0  0  0  0  0
  -30.1901   -4.0728   -5.7860 C   0  0  0  0  0  0  0  0  0  0  0  0
  -30.0355   -2.6992   -5.5656 C   0  0  0  0  0  0  0  0  0  0  0  0
  -29.0771   -1.9651   -6.2808 C   0  0  0  0  0  0  0  0  0  0  0  0
  -28.2335   -2.6277   -7.2015 C   0  0  0  0  0  0  0  0  0  0  0  0
  -28.4118   -4.0019   -7.4240 C   0  0  0  0  0  0  0  0  0  0  0  0
  -29.6444   -6.4255   -7.1280 S   0  0  0  0  0  0  0  0  0  0  0  0
  -28.5690   -6.8346   -8.0069 O   0  0  0  0  0  0  0  0  0  0  0  0
  -31.0315   -6.5544   -7.5421 O   0  0  0  0  0  0  0  0  0  0  0  0
  -28.1819   -8.0898   -5.5280 C   0  0  0  0  0  0  0  0  0  0  0  0
  -29.4550   -7.2652   -5.5646 C   0  0  0  0  0  0  0  0  0  0  0  0
  -28.9137   -0.6054   -6.1742 O   0  0  0  0  0  0  0  0  0  0  0  0
  -28.4137   -0.1124   -4.9353 C   0  0  0  0  0  0  0  0  0  0  0  0
  -27.2478   -1.9162   -7.9259 N   0  0  0  0  0  0  0  0  0  0  0  0
  -26.7597   -1.2310   -7.3643 H   0  0  0  0  0  0  0  0  0  0  0  0
  -27.3071   -1.7273   -9.2567 C   0  0  0  0  0  0  0  0  0  0  0  0
  -28.3539   -1.7615  -10.0561 N   0  0  0  0  0  0  0  0  0  0  0  0
  -27.8335   -1.5219  -11.2963 C   0  0  0  0  0  0  0  0  0  0  0  0
  -26.4731   -1.3223  -11.2179 C   0  0  0  0  0  0  0  0  0  0  0  0
  -26.1240   -1.4647   -9.8951 O   0  0  0  0  0  0  0  0  0  0  0  0
  -25.4261   -1.0207  -12.1835 C   0  0  0  0  0  0  0  0  0  0  0  0
  -24.3266   -0.2330  -11.8015 C   0  0  0  0  0  0  0  0  0  0  0  0
  -23.3087    0.0761  -12.7056 C   0  0  0  0  0  0  0  0  0  0  0  0
  -23.3737   -0.4002  -14.0128 C   0  0  0  0  0  0  0  0  0  0  0  0
  -24.4554   -1.1845  -14.4107 C   0  0  0  0  0  0  0  0  0  0  0  0
  -25.4735   -1.4930  -13.5039 C   0  0  0  0  0  0  0  0  0  0  0  0
 10 11  1  0  0  0
 11  7  1  0  0  0
  7  8  2  0  0  0
  7  9  2  0  0  0
  7  1  1  0  0  0
  1  2  1  0  0  0
  1  6  2  0  0  0
  2  3  2  0  0  0
  3  4  1  0  0  0
  4 12  1  0  0  0
  4  5  2  0  0  0
 12 13  1  0  0  0
  5 14  1  0  0  0
  5  6  1  0  0  0
 14 16  1  0  0  0
 14 15  1  0  0  0
 16 17  2  0  0  0
 16 20  1  0  0  0
 17 18  1  0  0  0
 18 19  2  0  0  0
 19 21  1  0  0  0
 19 20  1  0  0  0
 21 22  1  0  0  0
 21 26  2  0  0  0
 22 23  2  0  0  0
 23 24  1  0  0  0
 24 25  2  0  0  0
 25 26  1  0  0  0
M  END
> <minimizedAffinity>
-8.05174

$$$$
