CHEMBL3759313


 34 36  0  0  0  0  0  0  0  0999 V2000
  -27.8770   -1.2746   -6.8004 C   0  0  0  0  0  0  0  0  0  0  0  0
  -27.9858   -1.9870   -5.5981 C   0  0  0  0  0  0  0  0  0  0  0  0
  -28.3209   -3.3253   -5.5573 C   0  0  0  0  0  0  0  0  0  0  0  0
  -28.4766   -3.8760   -4.3521 N   0  0  0  0  0  0  0  0  0  0  0  0
  -28.8162   -5.1625   -4.3274 C   0  0  0  0  0  0  0  0  0  0  0  0
  -28.9715   -5.9408   -5.3944 N   0  0  0  0  0  0  0  0  0  0  0  0
  -28.7842   -5.3822   -6.6088 C   0  0  0  0  0  0  0  0  0  0  0  0
  -28.4867   -4.0177   -6.7608 C   0  0  0  0  0  0  0  0  0  0  0  0
  -28.3140   -3.3233   -7.9881 C   0  0  0  0  0  0  0  0  0  0  0  0
  -27.9940   -1.9598   -8.0149 C   0  0  0  0  0  0  0  0  0  0  0  0
  -28.7677    0.8445   -6.2694 C   0  0  0  0  0  0  0  0  0  0  0  0
  -27.6818    0.0815   -6.8002 O   0  0  0  0  0  0  0  0  0  0  0  0
  -28.8424   -6.2360   -7.7401 N   0  0  0  0  0  0  0  0  0  0  0  0
  -28.8279   -5.6973   -8.6022 H   0  0  0  0  0  0  0  0  0  0  0  0
  -29.7287   -7.3416   -7.8171 C   0  0  0  0  0  0  0  0  0  0  0  0
  -31.0242   -7.2564   -7.2863 C   0  0  0  0  0  0  0  0  0  0  0  0
  -31.9361   -8.2981   -7.4508 C   0  0  0  0  0  0  0  0  0  0  0  0
  -31.5556   -9.4544   -8.1286 C   0  0  0  0  0  0  0  0  0  0  0  0
  -30.2555   -9.5758   -8.6211 C   0  0  0  0  0  0  0  0  0  0  0  0
  -29.3526   -8.5274   -8.4539 C   0  0  0  0  0  0  0  0  0  0  0  0
  -28.1139   -8.6445   -8.9586 F   0  0  0  0  0  0  0  0  0  0  0  0
  -27.9207   -1.4251   -9.2768 O   0  0  0  0  0  0  0  0  0  0  0  0
  -26.8459   -1.8887  -10.1005 C   0  0  0  0  0  0  0  0  0  0  0  0
  -27.1322   -1.4855  -11.5534 C   0  0  0  0  0  0  0  0  0  0  0  0
  -25.9489   -0.7249  -12.1555 C   0  0  0  0  0  0  0  0  0  0  0  0
  -25.3718   -1.4043  -13.4016 C   0  0  0  0  0  0  0  0  0  0  0  0
  -23.9236   -0.9578  -13.6323 C   0  0  0  0  0  0  0  0  0  0  0  0
  -23.5866    0.3375  -12.8954 C   0  0  0  0  0  0  0  0  0  0  0  0
  -22.6571    1.2185  -13.7061 C   0  0  0  0  0  0  0  0  0  0  0  0
  -21.6734    0.8221  -14.3228 O   0  0  0  0  0  0  0  0  0  0  0  0
  -23.0157    2.5501  -13.6904 N   0  0  0  0  0  0  0  0  0  0  0  0
  -22.2415    3.3937  -14.5231 O   0  0  0  0  0  0  0  0  0  0  0  0
  -23.9577    2.8649  -13.4798 H   0  0  0  0  0  0  0  0  0  0  0  0
  -21.5678    2.7736  -14.8817 H   0  0  0  0  0  0  0  0  0  0  0  0
 11 12  1  0  0  0
 12  1  1  0  0  0
  1  2  1  0  0  0
  1 10  2  0  0  0
  2  3  2  0  0  0
  3  4  1  0  0  0
  3  8  1  0  0  0
  4  5  2  0  0  0
  5  6  1  0  0  0
  6  7  2  0  0  0
  7 13  1  0  0  0
  7  8  1  0  0  0
 13 15  1  0  0  0
 13 14  1  0  0  0
 15 16  1  0  0  0
 15 20  2  0  0  0
 16 17  2  0  0  0
 17 18  1  0  0  0
 18 19  2  0  0  0
 19 20  1  0  0  0
 20 21  1  0  0  0
  8  9  2  0  0  0
  9 10  1  0  0  0
 10 22  1  0  0  0
 22 23  1  0  0  0
 23 24  1  0  0  0
 24 25  1  0  0  0
 25 26  1  0  0  0
 26 27  1  0  0  0
 27 28  1  0  0  0
 28 29  1  0  0  0
 29 30  2  0  0  0
 29 31  1  0  0  0
 31 32  1  0  0  0
 31 33  1  0  0  0
 32 34  1  0  0  0
M  END
> <minimizedAffinity>
-8.97658

$$$$
