CHEMBL4461971


 47 52  0  0  0  0  0  0  0  0999 V2000
  -21.5478   -0.0442  -14.3154 O   0  0  0  0  0  0  0  0  0  0  0  0
  -21.3231    1.3037  -14.6159 C   0  0  0  0  0  0  0  0  0  0  0  0
  -22.4420    2.0728  -14.6667 N   0  0  0  0  0  0  0  0  0  0  0  0
  -22.2558    3.3648  -14.9118 C   0  0  0  0  0  0  0  0  0  0  0  0
  -21.0791    3.9445  -15.0746 N   0  0  0  0  0  0  0  0  0  0  0  0
  -19.9975    3.1777  -14.9737 C   0  0  0  0  0  0  0  0  0  0  0  0
  -18.8389    3.8795  -15.1772 C   0  0  0  0  0  0  0  0  0  0  0  0
  -17.5968    3.2937  -15.0219 C   0  0  0  0  0  0  0  0  0  0  0  0
  -17.5316    1.9850  -14.6135 C   0  0  0  0  0  0  0  0  0  0  0  0
  -18.6646    1.1763  -14.6558 C   0  0  0  0  0  0  0  0  0  0  0  0
  -19.9842    1.7891  -14.7445 C   0  0  0  0  0  0  0  0  0  0  0  0
  -18.4783   -0.1870  -14.7364 O   0  0  0  0  0  0  0  0  0  0  0  0
  -17.1063   -0.6087  -15.0423 C   0  0  0  0  0  0  0  0  0  0  0  0
  -16.0729    0.4905  -15.2847 C   0  0  0  0  0  0  0  0  0  0  0  0
  -16.2882    1.4907  -14.3141 O   0  0  0  0  0  0  0  0  0  0  0  0
  -16.3938    3.8421  -15.3542 O   0  0  0  0  0  0  0  0  0  0  0  0
  -16.1321    4.0011  -16.7375 C   0  0  0  0  0  0  0  0  0  0  0  0
  -14.6300    3.8209  -16.9224 C   0  0  0  0  0  0  0  0  0  0  0  0
  -13.8651    3.6570  -15.6846 N   0  0  0  0  0  0  0  0  0  0  0  0
  -13.0471    4.8452  -15.3690 C   0  0  0  0  0  0  0  0  0  0  0  0
  -11.9448    5.1008  -16.4076 C   0  0  0  0  0  0  0  0  0  0  0  0
  -11.0857    3.9605  -16.5451 O   0  0  0  0  0  0  0  0  0  0  0  0
  -11.8227    2.7732  -16.8690 C   0  0  0  0  0  0  0  0  0  0  0  0
  -12.9459    2.5054  -15.8479 C   0  0  0  0  0  0  0  0  0  0  0  0
  -24.8339   -1.5727  -12.1454 C   0  0  0  0  0  0  0  0  0  0  0  0
  -24.9024   -1.5019  -13.5387 C   0  0  0  0  0  0  0  0  0  0  0  0
  -23.8495   -0.9413  -14.2891 C   0  0  0  0  0  0  0  0  0  0  0  0
  -22.7209   -0.4094  -13.6561 C   0  0  0  0  0  0  0  0  0  0  0  0
  -22.7063   -0.3730  -12.2604 C   0  0  0  0  0  0  0  0  0  0  0  0
  -23.7551   -0.9423  -11.5120 C   0  0  0  0  0  0  0  0  0  0  0  0
  -25.7724   -0.9545   -9.4424 O   0  0  0  0  0  0  0  0  0  0  0  0
  -26.1945   -1.9204  -10.0663 C   0  0  0  0  0  0  0  0  0  0  0  0
  -25.7575   -2.2907  -11.3351 N   0  0  0  0  0  0  0  0  0  0  0  0
  -27.2017   -2.7592   -9.6036 N   0  0  0  0  0  0  0  0  0  0  0  0
  -26.3042   -2.9934  -11.8089 H   0  0  0  0  0  0  0  0  0  0  0  0
  -27.3850   -3.6082  -10.1204 H   0  0  0  0  0  0  0  0  0  0  0  0
  -27.9734   -2.5981   -8.4193 C   0  0  0  0  0  0  0  0  0  0  0  0
  -28.1651   -1.3785   -7.7626 C   0  0  0  0  0  0  0  0  0  0  0  0
  -28.9638   -1.2828   -6.6049 C   0  0  0  0  0  0  0  0  0  0  0  0
  -29.5779   -2.4381   -6.0962 C   0  0  0  0  0  0  0  0  0  0  0  0
  -29.4013   -3.6609   -6.7428 C   0  0  0  0  0  0  0  0  0  0  0  0
  -28.6086   -3.7295   -7.8903 C   0  0  0  0  0  0  0  0  0  0  0  0
  -28.4655   -4.9159   -8.5038 F   0  0  0  0  0  0  0  0  0  0  0  0
  -29.1626    0.0458   -5.9122 C   0  0  0  0  0  0  0  0  0  0  0  0
  -28.6215    0.1118   -4.6670 F   0  0  0  0  0  0  0  0  0  0  0  0
  -28.6220    1.0804   -6.6101 F   0  0  0  0  0  0  0  0  0  0  0  0
  -30.4806    0.3562   -5.7647 F   0  0  0  0  0  0  0  0  0  0  0  0
 31 32  2  0  0  0
 32 33  1  0  0  0
 32 34  1  0  0  0
 33 25  1  0  0  0
 33 35  1  0  0  0
 25 26  1  0  0  0
 25 30  2  0  0  0
 26 27  2  0  0  0
 27 28  1  0  0  0
 28  1  1  0  0  0
 28 29  2  0  0  0
  1  2  1  0  0  0
  2  3  1  0  0  0
  2 11  2  0  0  0
  3  4  2  0  0  0
  4  5  1  0  0  0
  5  6  2  0  0  0
  6  7  1  0  0  0
  6 11  1  0  0  0
  7  8  2  0  0  0
  8 16  1  0  0  0
  8  9  1  0  0  0
 16 17  1  0  0  0
 17 18  1  0  0  0
 18 19  1  0  0  0
 19 20  1  0  0  0
 19 24  1  0  0  0
 20 21  1  0  0  0
 21 22  1  0  0  0
 22 23  1  0  0  0
 23 24  1  0  0  0
  9 10  2  0  0  0
  9 15  1  0  0  0
 10 11  1  0  0  0
 10 12  1  0  0  0
 12 13  1  0  0  0
 13 14  1  0  0  0
 14 15  1  0  0  0
 29 30  1  0  0  0
 34 37  1  0  0  0
 34 36  1  0  0  0
 37 38  1  0  0  0
 37 42  2  0  0  0
 38 39  2  0  0  0
 39 44  1  0  0  0
 39 40  1  0  0  0
 44 45  1  0  0  0
 44 46  1  0  0  0
 44 47  1  0  0  0
 40 41  2  0  0  0
 41 42  1  0  0  0
 42 43  1  0  0  0
M  END
> <minimizedAffinity>
-8.47028

$$$$
