CHEMBL3656085


 48 51  0  0  0  0  0  0  0  0999 V2000
  -20.0465    2.1969  -14.8374 C   0  0  0  0  0  0  0  0  0  0  0  0
  -20.4669    0.8764  -14.9169 C   0  0  0  0  0  0  0  0  0  0  0  0
  -21.7040    0.5225  -14.3809 C   0  0  0  0  0  0  0  0  0  0  0  0
  -22.5339    1.5253  -13.8965 C   0  0  0  0  0  0  0  0  0  0  0  0
  -22.0559    2.8290  -13.9061 C   0  0  0  0  0  0  0  0  0  0  0  0
  -20.8239    3.1882  -14.3434 N   0  0  0  0  0  0  0  0  0  0  0  0
  -16.4670    2.6806  -15.7906 C   0  0  0  0  0  0  0  0  0  0  0  0
  -16.9802    3.9663  -15.7495 C   0  0  0  0  0  0  0  0  0  0  0  0
  -18.3167    3.8940  -15.4269 N   0  0  0  0  0  0  0  0  0  0  0  0
  -18.6944    2.5851  -15.2343 C   0  0  0  0  0  0  0  0  0  0  0  0
  -17.5596    1.8246  -15.4585 C   0  0  0  0  0  0  0  0  0  0  0  0
  -18.9547    4.6747  -15.3270 H   0  0  0  0  0  0  0  0  0  0  0  0
  -14.9452    0.8755  -16.2793 N   0  0  0  0  0  0  0  0  0  0  0  0
  -15.1124    2.2247  -16.0988 C   0  0  0  0  0  0  0  0  0  0  0  0
  -14.1703    3.0125  -16.1877 O   0  0  0  0  0  0  0  0  0  0  0  0
  -15.7408    0.2507  -16.2028 H   0  0  0  0  0  0  0  0  0  0  0  0
  -13.6366    0.3058  -16.5990 C   0  0  0  0  0  0  0  0  0  0  0  0
  -13.7222   -0.3516  -17.9821 C   0  0  0  0  0  0  0  0  0  0  0  0
  -14.2194    0.1696  -18.9759 O   0  0  0  0  0  0  0  0  0  0  0  0
  -13.2109   -1.6155  -17.9275 O   0  0  0  0  0  0  0  0  0  0  0  0
  -13.4667   -2.4243  -19.0755 C   0  0  0  0  0  0  0  0  0  0  0  0
  -13.1959   -0.7108  -15.5332 C   0  0  0  0  0  0  0  0  0  0  0  0
  -13.4168   -0.2079  -14.1052 C   0  0  0  0  0  0  0  0  0  0  0  0
  -12.1283    0.1511  -13.4103 C   0  0  0  0  0  0  0  0  0  0  0  0
  -11.5723   -0.5158  -12.5513 O   0  0  0  0  0  0  0  0  0  0  0  0
  -12.1955    2.4900  -13.2742 C   0  0  0  0  0  0  0  0  0  0  0  0
  -11.6642    1.3304  -13.9156 O   0  0  0  0  0  0  0  0  0  0  0  0
  -22.1721   -0.7799  -14.3152 O   0  0  0  0  0  0  0  0  0  0  0  0
  -23.2449   -1.0570  -13.4896 C   0  0  0  0  0  0  0  0  0  0  0  0
  -23.1066   -1.2930  -12.1263 C   0  0  0  0  0  0  0  0  0  0  0  0
  -24.1953   -1.7326  -11.3750 C   0  0  0  0  0  0  0  0  0  0  0  0
  -25.4655   -1.8663  -11.9362 C   0  0  0  0  0  0  0  0  0  0  0  0
  -25.6312   -1.4938  -13.2769 C   0  0  0  0  0  0  0  0  0  0  0  0
  -24.5230   -1.0937  -14.0515 C   0  0  0  0  0  0  0  0  0  0  0  0
  -26.5717   -2.3832  -11.2101 N   0  0  0  0  0  0  0  0  0  0  0  0
  -26.8916   -2.0541   -9.9015 C   0  0  0  0  0  0  0  0  0  0  0  0
  -26.3021   -1.2261   -9.2156 O   0  0  0  0  0  0  0  0  0  0  0  0
  -27.9581   -2.7920   -9.4054 N   0  0  0  0  0  0  0  0  0  0  0  0
  -27.1824   -3.0306  -11.6871 H   0  0  0  0  0  0  0  0  0  0  0  0
  -27.9366   -3.7695   -9.6674 H   0  0  0  0  0  0  0  0  0  0  0  0
  -28.3688   -2.5532   -8.0624 C   0  0  0  0  0  0  0  0  0  0  0  0
  -27.9735   -1.4004   -7.3687 C   0  0  0  0  0  0  0  0  0  0  0  0
  -28.3114   -1.2197   -6.0218 C   0  0  0  0  0  0  0  0  0  0  0  0
  -27.8936    0.0186   -5.2831 C   0  0  0  0  0  0  0  0  0  0  0  0
  -29.0386   -2.2201   -5.3626 C   0  0  0  0  0  0  0  0  0  0  0  0
  -29.4460   -3.3660   -6.0497 C   0  0  0  0  0  0  0  0  0  0  0  0
  -29.1297   -3.5138   -7.3975 C   0  0  0  0  0  0  0  0  0  0  0  0
  -29.5001   -4.6320   -8.0405 F   0  0  0  0  0  0  0  0  0  0  0  0
 26 27  1  0  0  0
 27 24  1  0  0  0
 24 25  2  0  0  0
 24 23  1  0  0  0
 23 22  1  0  0  0
 17 18  1  0  0  0
 17 13  1  0  0  0
 17 22  1  0  0  0
 13 14  1  0  0  0
 13 16  1  0  0  0
 14 15  2  0  0  0
 14  7  1  0  0  0
  7  8  2  0  0  0
  7 11  1  0  0  0
  8  9  1  0  0  0
  9 10  1  0  0  0
  9 12  1  0  0  0
 10  1  1  0  0  0
 10 11  2  0  0  0
  1  2  1  0  0  0
  1  6  2  0  0  0
  2  3  2  0  0  0
  3 28  1  0  0  0
  3  4  1  0  0  0
 28 29  1  0  0  0
 29 30  1  0  0  0
 29 34  2  0  0  0
 30 31  2  0  0  0
 31 32  1  0  0  0
 32 35  1  0  0  0
 32 33  2  0  0  0
 35 36  1  0  0  0
 35 39  1  0  0  0
 36 37  2  0  0  0
 36 38  1  0  0  0
 38 41  1  0  0  0
 38 40  1  0  0  0
 41 42  1  0  0  0
 41 47  2  0  0  0
 42 43  2  0  0  0
 43 44  1  0  0  0
 43 45  1  0  0  0
 45 46  2  0  0  0
 46 47  1  0  0  0
 47 48  1  0  0  0
 33 34  1  0  0  0
  4  5  2  0  0  0
  5  6  1  0  0  0
 18 19  2  0  0  0
 18 20  1  0  0  0
 20 21  1  0  0  0
M  END
> <minimizedAffinity>
-10.70600

$$$$
