CHEMBL3918638


 44 47  0  0  0  0  0  0  0  0999 V2000
  -28.6630   -3.0733   -7.9673 N   0  0  0  0  0  0  0  0  0  0  0  0
  -27.7208   -2.4444   -8.9982 C   0  0  0  0  0  0  0  0  0  0  0  0
  -28.4633   -1.9765  -10.0729 C   0  0  0  0  0  0  0  0  0  0  0  0
  -28.0011   -1.5689  -11.2115 C   0  0  0  0  0  0  0  0  0  0  0  0
  -26.7176   -1.4477  -11.4501 C   0  0  0  0  0  0  0  0  0  0  0  0
  -26.5109   -1.1916  -12.7137 N   0  0  0  0  0  0  0  0  0  0  0  0
  -25.3691   -0.8471  -13.1853 C   0  0  0  0  0  0  0  0  0  0  0  0
  -24.3062   -0.5407  -12.3506 C   0  0  0  0  0  0  0  0  0  0  0  0
  -24.4225   -1.0496  -10.9881 N   0  0  0  0  0  0  0  0  0  0  0  0
  -25.6980   -1.5678  -10.5103 C   0  0  0  0  0  0  0  0  0  0  0  0
  -26.2075   -2.1855   -9.1896 C   0  0  0  0  0  0  0  0  0  0  0  0
  -23.3714    0.4073  -13.2595 C   0  0  0  0  0  0  0  0  0  0  0  0
  -22.3119   -0.2564  -13.9552 C   0  0  0  0  0  0  0  0  0  0  0  0
  -21.5028    0.5709  -14.5841 N   0  0  0  0  0  0  0  0  0  0  0  0
  -21.9460    1.7858  -14.4237 N   0  0  0  0  0  0  0  0  0  0  0  0
  -21.1515    2.8685  -15.0221 C   0  0  0  0  0  0  0  0  0  0  0  0
  -23.1088    1.7654  -13.6600 C   0  0  0  0  0  0  0  0  0  0  0  0
  -30.1748   -6.2397   -6.3863 C   0  0  0  0  0  0  0  0  0  0  0  0
  -29.4984   -7.2201   -7.0930 C   0  0  0  0  0  0  0  0  0  0  0  0
  -28.5664   -6.8624   -8.0796 C   0  0  0  0  0  0  0  0  0  0  0  0
  -28.3041   -5.5079   -8.3477 C   0  0  0  0  0  0  0  0  0  0  0  0
  -28.9533   -4.4809   -7.6821 C   0  0  0  0  0  0  0  0  0  0  0  0
  -29.9128   -4.9096   -6.6784 C   0  0  0  0  0  0  0  0  0  0  0  0
  -32.1325   -6.2811   -3.6836 H   0  0  0  0  0  0  0  0  0  0  0  0
  -31.3335   -5.7873   -4.2781 C   0  0  0  0  0  0  0  0  0  0  0  0
  -31.6629   -4.7580   -4.5299 H   0  0  0  0  0  0  0  0  0  0  0  0
  -30.4067   -5.7629   -3.6686 H   0  0  0  0  0  0  0  0  0  0  0  0
  -31.1060   -6.5133   -5.4267 O   0  0  0  0  0  0  0  0  0  0  0  0
  -27.9424   -7.8434   -8.7607 O   0  0  0  0  0  0  0  0  0  0  0  0
  -28.5215   -9.0651   -9.0265 C   0  0  0  0  0  0  0  0  0  0  0  0
  -28.8413   -9.5397   -8.0712 H   0  0  0  0  0  0  0  0  0  0  0  0
  -29.4041   -8.9242   -9.6875 H   0  0  0  0  0  0  0  0  0  0  0  0
  -27.7845   -9.7203   -9.5200 H   0  0  0  0  0  0  0  0  0  0  0  0
  -29.3958   -2.1209   -7.0402 C   0  0  0  0  0  0  0  0  0  0  0  0
  -30.1403   -1.4552   -7.4193 H   0  0  0  0  0  0  0  0  0  0  0  0
  -30.1077   -2.6650   -6.3951 H   0  0  0  0  0  0  0  0  0  0  0  0
  -28.4445   -1.1720   -6.2771 C   0  0  0  0  0  0  0  0  0  0  0  0
  -28.7873   -1.0974   -5.2191 H   0  0  0  0  0  0  0  0  0  0  0  0
  -27.4239   -1.5769   -6.2628 H   0  0  0  0  0  0  0  0  0  0  0  0
  -28.4579    0.1595   -6.8945 N   0  0  0  0  0  0  0  0  0  0  0  0
  -29.1377    0.1213   -7.6929 H   0  0  0  0  0  0  0  0  0  0  0  0
  -28.9053    1.2225   -5.9738 C   0  0  0  0  0  0  0  0  0  0  0  0
  -30.4249    1.1693   -5.7377 C   0  0  0  0  0  0  0  0  0  0  0  0
  -28.1879    1.0471   -4.6302 C   0  0  0  0  0  0  0  0  0  0  0  0
 24 25  1  0  0  0
 25 26  1  0  0  0
 25 27  1  0  0  0
 25 28  1  0  0  0
 28 18  1  0  0  0
 18 19  1  0  0  0
 18 23  2  0  0  0
 19 20  2  0  0  0
 20 29  1  0  0  0
 20 21  1  0  0  0
 29 30  1  0  0  0
 30 31  1  0  0  0
 30 32  1  0  0  0
 30 33  1  0  0  0
 21 22  2  0  0  0
 22  1  1  0  0  0
 22 23  1  0  0  0
  1  2  1  0  0  0
  1 34  1  0  0  0
  2  3  1  0  0  0
  2 11  2  0  0  0
  3  4  2  0  0  0
  4  5  1  0  0  0
  5  6  1  0  0  0
  5 10  2  0  0  0
  6  7  2  0  0  0
  7  8  1  0  0  0
  8 12  1  0  0  0
  8  9  2  0  0  0
 12 13  1  0  0  0
 12 17  2  0  0  0
 13 14  2  0  0  0
 14 15  1  0  0  0
 15 16  1  0  0  0
 15 17  1  0  0  0
  9 10  1  0  0  0
 10 11  1  0  0  0
 34 35  1  0  0  0
 34 36  1  0  0  0
 34 37  1  0  0  0
 37 38  1  0  0  0
 37 39  1  0  0  0
 37 40  1  0  0  0
 40 42  1  0  0  0
 40 41  1  0  0  0
 42 43  1  0  0  0
 42 44  1  0  0  0
M  ISO 1  24   2
M  ISO 1  26   2
M  ISO 1  27   2
M  ISO 1  31   2
M  ISO 1  32   2
M  ISO 1  33   2
M  ISO 1  35   2
M  ISO 1  36   2
M  ISO 1  38   2
M  ISO 1  39   2
M  END
> <minimizedAffinity>
-6.42561

$$$$
