CHEMBL4796639


 36 38  0  0  0  0  0  0  0  0999 V2000
  -29.4047   -7.3609   -5.4312 C   0  0  0  0  0  0  0  0  0  0  0  0
  -29.5779   -7.0320   -4.0875 C   0  0  0  0  0  0  0  0  0  0  0  0
  -29.3833   -7.7948   -2.8243 C   0  0  0  0  0  0  0  0  0  0  0  0
  -29.9089   -5.6939   -4.0205 N   0  0  0  0  0  0  0  0  0  0  0  0
  -29.9184   -5.1311   -5.2694 C   0  0  0  0  0  0  0  0  0  0  0  0
  -29.6284   -6.1369   -6.1768 C   0  0  0  0  0  0  0  0  0  0  0  0
  -29.5120   -5.9857   -7.6557 C   0  0  0  0  0  0  0  0  0  0  0  0
  -30.0437   -5.1821   -3.1592 H   0  0  0  0  0  0  0  0  0  0  0  0
  -30.1830   -3.7417   -5.3953 C   0  0  0  0  0  0  0  0  0  0  0  0
  -29.2617   -2.7926   -5.1580 C   0  0  0  0  0  0  0  0  0  0  0  0
  -27.8476   -3.0091   -4.6676 C   0  0  0  0  0  0  0  0  0  0  0  0
  -27.3102   -4.0379   -4.3037 O   0  0  0  0  0  0  0  0  0  0  0  0
  -27.2690   -1.7557   -4.6693 N   0  0  0  0  0  0  0  0  0  0  0  0
  -28.1723   -0.7753   -5.0472 C   0  0  0  0  0  0  0  0  0  0  0  0
  -27.9201    0.5827   -5.1129 C   0  0  0  0  0  0  0  0  0  0  0  0
  -28.9789    1.4160   -5.4777 C   0  0  0  0  0  0  0  0  0  0  0  0
  -30.2659    0.8897   -5.7580 C   0  0  0  0  0  0  0  0  0  0  0  0
  -30.4670   -0.5096   -5.7173 C   0  0  0  0  0  0  0  0  0  0  0  0
  -29.4138   -1.3329   -5.3467 C   0  0  0  0  0  0  0  0  0  0  0  0
  -26.3169   -1.6046   -4.3760 H   0  0  0  0  0  0  0  0  0  0  0  0
  -31.3637    1.8676   -6.1310 C   0  0  0  0  0  0  0  0  0  0  0  0
  -31.2428    2.4491   -7.5411 C   0  0  0  0  0  0  0  0  0  0  0  0
  -32.5004    2.2514   -8.2745 N   0  0  0  0  0  0  0  0  0  0  0  0
  -32.8909    3.2518   -8.9052 N   0  0  0  0  0  0  0  0  0  0  0  0
  -33.2298    4.1793   -9.4738 N   0  0  0  0  0  0  0  0  0  0  0  0
  -27.6289   -8.7654   -6.3201 N   0  0  0  0  0  0  0  0  0  0  0  0
  -28.9700   -8.6454   -6.0078 C   0  0  0  0  0  0  0  0  0  0  0  0
  -29.7508   -9.5797   -6.1790 O   0  0  0  0  0  0  0  0  0  0  0  0
  -26.9720   -8.1274   -5.8910 H   0  0  0  0  0  0  0  0  0  0  0  0
  -27.1260  -10.0001   -6.8913 C   0  0  0  0  0  0  0  0  0  0  0  0
  -26.1550  -10.7772   -5.9760 C   0  0  0  0  0  0  0  0  0  0  0  0
  -24.7799  -10.2302   -5.8776 N   0  0  0  0  0  0  0  0  0  0  0  0
  -25.0669   -9.1692   -3.5998 C   0  0  0  0  0  0  0  0  0  0  0  0
  -24.3253  -10.1738   -4.4762 C   0  0  0  0  0  0  0  0  0  0  0  0
  -23.8528  -10.9584   -6.7687 C   0  0  0  0  0  0  0  0  0  0  0  0
  -22.3570  -10.7125   -6.5663 C   0  0  0  0  0  0  0  0  0  0  0  0
 33 34  1  0  0  0
 34 32  1  0  0  0
 32 35  1  0  0  0
 32 31  1  0  0  0
 35 36  1  0  0  0
 31 30  1  0  0  0
 30 26  1  0  0  0
 26 27  1  0  0  0
 26 29  1  0  0  0
 27 28  2  0  0  0
 27  1  1  0  0  0
  1  2  2  0  0  0
  1  6  1  0  0  0
  2  3  1  0  0  0
  2  4  1  0  0  0
  4  5  1  0  0  0
  4  8  1  0  0  0
  5  9  1  0  0  0
  5  6  2  0  0  0
  9 10  2  0  0  0
 10 11  1  0  0  0
 10 19  1  0  0  0
 11 12  2  0  0  0
 11 13  1  0  0  0
 13 14  1  0  0  0
 13 20  1  0  0  0
 14 15  1  0  0  0
 14 19  2  0  0  0
 15 16  2  0  0  0
 16 17  1  0  0  0
 17 21  1  0  0  0
 17 18  2  0  0  0
 21 22  1  0  0  0
 22 23  1  0  0  0
 23 24  2  0  0  0
 24 25  2  0  0  0
 18 19  1  0  0  0
  6  7  1  0  0  0
M  CHG 1  24   1
M  CHG 1  25  -1
M  END
> <minimizedAffinity>
-7.78199

$$$$
