CHEMBL3752671


 35 39  0  0  0  0  0  0  0  0999 V2000
  -11.9080    0.2836  -15.1831 N   0  0  0  0  0  0  0  0  0  0  0  0
  -12.1204   -0.8205  -16.1360 C   0  0  0  0  0  0  0  0  0  0  0  0
  -13.3454   -1.7269  -15.8946 C   0  0  0  0  0  0  0  0  0  0  0  0
  -13.3309   -2.1306  -14.4968 N   0  0  0  0  0  0  0  0  0  0  0  0
  -13.5936   -0.9940  -13.6108 C   0  0  0  0  0  0  0  0  0  0  0  0
  -12.5022    0.1024  -13.8400 C   0  0  0  0  0  0  0  0  0  0  0  0
  -13.2361   -3.4242  -14.0214 C   0  0  0  0  0  0  0  0  0  0  0  0
  -12.0392   -4.0392  -14.1359 N   0  0  0  0  0  0  0  0  0  0  0  0
  -11.8242   -5.3330  -13.6826 N   0  0  0  0  0  0  0  0  0  0  0  0
  -12.8069   -6.0307  -13.0733 C   0  0  0  0  0  0  0  0  0  0  0  0
  -14.0750   -5.4402  -12.8747 C   0  0  0  0  0  0  0  0  0  0  0  0
  -15.1384   -6.0747  -12.1647 C   0  0  0  0  0  0  0  0  0  0  0  0
  -16.4322   -5.5625  -12.1144 C   0  0  0  0  0  0  0  0  0  0  0  0
  -16.7002   -4.3742  -12.7460 C   0  0  0  0  0  0  0  0  0  0  0  0
  -15.6580   -3.6965  -13.3730 C   0  0  0  0  0  0  0  0  0  0  0  0
  -14.3118   -4.1497  -13.4229 C   0  0  0  0  0  0  0  0  0  0  0  0
  -12.4431   -7.4360  -12.7299 C   0  0  0  0  0  0  0  0  0  0  0  0
  -12.9586   -8.5236  -13.4598 C   0  0  0  0  0  0  0  0  0  0  0  0
  -12.6023   -9.8459  -13.1568 C   0  0  0  0  0  0  0  0  0  0  0  0
  -11.7061  -10.1143  -12.1263 C   0  0  0  0  0  0  0  0  0  0  0  0
  -11.2038   -9.0660  -11.3674 C   0  0  0  0  0  0  0  0  0  0  0  0
  -11.6013   -7.7538  -11.6432 C   0  0  0  0  0  0  0  0  0  0  0  0
  -12.0685    1.6066  -15.7984 C   0  0  0  0  0  0  0  0  0  0  0  0
  -14.5166    1.6638  -15.9836 N   0  0  0  0  0  0  0  0  0  0  0  0
  -13.4147    2.2429  -15.3651 C   0  0  0  0  0  0  0  0  0  0  0  0
  -13.4356    3.1847  -14.5776 O   0  0  0  0  0  0  0  0  0  0  0  0
  -14.2800    0.8800  -16.5884 H   0  0  0  0  0  0  0  0  0  0  0  0
  -18.5475    2.8391  -15.5241 C   0  0  0  0  0  0  0  0  0  0  0  0
  -18.1715    1.5375  -15.1930 C   0  0  0  0  0  0  0  0  0  0  0  0
  -16.8439    1.1230  -15.3554 C   0  0  0  0  0  0  0  0  0  0  0  0
  -15.8769    2.0049  -15.8441 C   0  0  0  0  0  0  0  0  0  0  0  0
  -16.2650    3.3010  -16.1976 C   0  0  0  0  0  0  0  0  0  0  0  0
  -17.5952    3.7222  -16.0377 C   0  0  0  0  0  0  0  0  0  0  0  0
  -21.0023    3.6013  -15.1826 N   0  0  0  0  0  0  0  0  0  0  0  0
  -19.9030    3.2631  -15.3339 C   0  0  0  0  0  0  0  0  0  0  0  0
 34 35  3  0  0  0
 35 28  1  0  0  0
 28 29  1  0  0  0
 28 33  2  0  0  0
 29 30  2  0  0  0
 30 31  1  0  0  0
 31 24  1  0  0  0
 31 32  2  0  0  0
 24 25  1  0  0  0
 24 27  1  0  0  0
 25 26  2  0  0  0
 25 23  1  0  0  0
 23  1  1  0  0  0
  1  2  1  0  0  0
  1  6  1  0  0  0
  2  3  1  0  0  0
  3  4  1  0  0  0
  4  7  1  0  0  0
  4  5  1  0  0  0
  7  8  1  0  0  0
  7 16  2  0  0  0
  8  9  2  0  0  0
  9 10  1  0  0  0
 10 17  1  0  0  0
 10 11  2  0  0  0
 17 18  1  0  0  0
 17 22  2  0  0  0
 18 19  2  0  0  0
 19 20  1  0  0  0
 20 21  2  0  0  0
 21 22  1  0  0  0
 11 12  1  0  0  0
 11 16  1  0  0  0
 12 13  2  0  0  0
 13 14  1  0  0  0
 14 15  2  0  0  0
 15 16  1  0  0  0
  5  6  1  0  0  0
 32 33  1  0  0  0
M  END
> <minimizedAffinity>
-8.43799

$$$$
