CHEMBL191070


 43 46  0  0  0  0  0  0  0  0999 V2000
  -15.1272    2.3590  -15.8249 C   0  0  0  0  0  0  0  0  0  0  0  0
  -16.1597    1.4348  -15.5851 C   0  0  0  0  0  0  0  0  0  0  0  0
  -17.4972    1.8297  -15.5054 C   0  0  0  0  0  0  0  0  0  0  0  0
  -18.5335    0.9294  -15.2789 C   0  0  0  0  0  0  0  0  0  0  0  0
  -19.8259    1.2862  -15.1618 N   0  0  0  0  0  0  0  0  0  0  0  0
  -20.1275    2.5894  -15.2947 C   0  0  0  0  0  0  0  0  0  0  0  0
  -19.1395    3.5428  -15.5441 C   0  0  0  0  0  0  0  0  0  0  0  0
  -17.8021    3.1818  -15.6316 C   0  0  0  0  0  0  0  0  0  0  0  0
  -16.8361    4.1104  -15.8042 N   0  0  0  0  0  0  0  0  0  0  0  0
  -15.5444    3.6978  -15.9418 C   0  0  0  0  0  0  0  0  0  0  0  0
  -11.8217    0.8787  -14.6173 C   0  0  0  0  0  0  0  0  0  0  0  0
  -11.1814    0.6065  -15.8258 C   0  0  0  0  0  0  0  0  0  0  0  0
  -11.8078    0.9365  -17.0245 C   0  0  0  0  0  0  0  0  0  0  0  0
  -13.0357    1.6022  -17.0047 C   0  0  0  0  0  0  0  0  0  0  0  0
  -13.7285    1.8582  -15.8034 C   0  0  0  0  0  0  0  0  0  0  0  0
  -13.0844    1.4819  -14.6168 C   0  0  0  0  0  0  0  0  0  0  0  0
  -11.2084   -0.7885  -13.0401 C   0  0  0  0  0  0  0  0  0  0  0  0
  -11.3413    0.5868  -13.3687 O   0  0  0  0  0  0  0  0  0  0  0  0
  -11.3184    0.6540  -18.2719 O   0  0  0  0  0  0  0  0  0  0  0  0
  -10.6966    1.7454  -18.9458 C   0  0  0  0  0  0  0  0  0  0  0  0
  -14.6228    4.7592  -16.1447 N   0  0  0  0  0  0  0  0  0  0  0  0
  -14.4580    5.2423  -17.4310 C   0  0  0  0  0  0  0  0  0  0  0  0
  -15.0474    4.7997  -18.4080 O   0  0  0  0  0  0  0  0  0  0  0  0
  -13.5965    6.3190  -17.4554 N   0  0  0  0  0  0  0  0  0  0  0  0
  -14.8846    5.5463  -15.5578 H   0  0  0  0  0  0  0  0  0  0  0  0
  -12.8205    6.2270  -16.8131 H   0  0  0  0  0  0  0  0  0  0  0  0
  -13.3761    7.1696  -18.6497 C   0  0  0  0  0  0  0  0  0  0  0  0
  -12.4504    8.3457  -18.2916 C   0  0  0  0  0  0  0  0  0  0  0  0
  -12.6702    6.3392  -19.7440 C   0  0  0  0  0  0  0  0  0  0  0  0
  -14.6933    7.6944  -19.2410 C   0  0  0  0  0  0  0  0  0  0  0  0
  -21.4409    3.0293  -15.0947 N   0  0  0  0  0  0  0  0  0  0  0  0
  -22.0718    2.6408  -15.7856 H   0  0  0  0  0  0  0  0  0  0  0  0
  -21.9305    3.0346  -13.7186 C   0  0  0  0  0  0  0  0  0  0  0  0
  -23.1237    2.0867  -13.5579 C   0  0  0  0  0  0  0  0  0  0  0  0
  -22.7898    0.6056  -13.7521 C   0  0  0  0  0  0  0  0  0  0  0  0
  -22.6091   -0.1789  -12.4452 C   0  0  0  0  0  0  0  0  0  0  0  0
  -23.9681   -0.3106  -11.7504 C   0  0  0  0  0  0  0  0  0  0  0  0
  -24.5007   -1.6772  -11.6209 N   0  0  0  0  0  0  0  0  0  0  0  0
  -24.7580   -2.3513  -12.9149 C   0  0  0  0  0  0  0  0  0  0  0  0
  -25.8986   -1.7169  -13.7289 C   0  0  0  0  0  0  0  0  0  0  0  0
  -27.1186   -1.6692  -12.9748 O   0  0  0  0  0  0  0  0  0  0  0  0
  -26.9362   -0.9942  -11.7239 C   0  0  0  0  0  0  0  0  0  0  0  0
  -25.7999   -1.6319  -10.8985 C   0  0  0  0  0  0  0  0  0  0  0  0
 17 18  1  0  0  0
 18 11  1  0  0  0
 11 12  1  0  0  0
 11 16  2  0  0  0
 12 13  2  0  0  0
 13 19  1  0  0  0
 13 14  1  0  0  0
 19 20  1  0  0  0
 14 15  2  0  0  0
 15  1  1  0  0  0
 15 16  1  0  0  0
  1  2  1  0  0  0
  1 10  2  0  0  0
  2  3  2  0  0  0
  3  4  1  0  0  0
  3  8  1  0  0  0
  4  5  2  0  0  0
  5  6  1  0  0  0
  6 31  1  0  0  0
  6  7  2  0  0  0
 31 33  1  0  0  0
 31 32  1  0  0  0
 33 34  1  0  0  0
 34 35  1  0  0  0
 35 36  1  0  0  0
 36 37  1  0  0  0
 37 38  1  0  0  0
 38 39  1  0  0  0
 38 43  1  0  0  0
 39 40  1  0  0  0
 40 41  1  0  0  0
 41 42  1  0  0  0
 42 43  1  0  0  0
  7  8  1  0  0  0
  8  9  2  0  0  0
  9 10  1  0  0  0
 10 21  1  0  0  0
 21 22  1  0  0  0
 21 25  1  0  0  0
 22 23  2  0  0  0
 22 24  1  0  0  0
 24 27  1  0  0  0
 24 26  1  0  0  0
 27 28  1  0  0  0
 27 29  1  0  0  0
 27 30  1  0  0  0
M  END
> <minimizedAffinity>
-7.68284

$$$$
