CHEMBL3694714


 37 40  0  0  0  0  0  0  0  0999 V2000
  -26.1253   -1.5713  -10.9803 C   0  0  0  0  0  0  0  0  0  0  0  0
  -25.0208   -0.7098  -10.6138 C   0  0  0  0  0  0  0  0  0  0  0  0
  -24.2184   -0.2509  -11.5851 C   0  0  0  0  0  0  0  0  0  0  0  0
  -24.4868   -0.5674  -12.9234 N   0  0  0  0  0  0  0  0  0  0  0  0
  -23.8589   -0.1701  -14.0997 C   0  0  0  0  0  0  0  0  0  0  0  0
  -24.5322   -0.8746  -15.0890 C   0  0  0  0  0  0  0  0  0  0  0  0
  -25.5579   -1.6280  -14.5877 N   0  0  0  0  0  0  0  0  0  0  0  0
  -25.5305   -1.4189  -13.2920 C   0  0  0  0  0  0  0  0  0  0  0  0
  -26.3637   -1.9266  -12.2567 C   0  0  0  0  0  0  0  0  0  0  0  0
  -22.7114    0.7389  -14.2128 C   0  0  0  0  0  0  0  0  0  0  0  0
  -22.8892    2.1102  -13.9930 C   0  0  0  0  0  0  0  0  0  0  0  0
  -21.8268    2.9967  -14.1551 C   0  0  0  0  0  0  0  0  0  0  0  0
  -20.5802    2.5270  -14.5656 C   0  0  0  0  0  0  0  0  0  0  0  0
  -20.3647    1.1638  -14.7628 C   0  0  0  0  0  0  0  0  0  0  0  0
  -21.4247    0.2785  -14.5446 C   0  0  0  0  0  0  0  0  0  0  0  0
  -19.1391    0.6383  -15.2335 N   0  0  0  0  0  0  0  0  0  0  0  0
  -17.8920    0.9939  -14.7711 C   0  0  0  0  0  0  0  0  0  0  0  0
  -17.6622    1.6801  -13.7890 O   0  0  0  0  0  0  0  0  0  0  0  0
  -16.8724    0.5312  -15.5603 N   0  0  0  0  0  0  0  0  0  0  0  0
  -19.1864   -0.1306  -15.8868 H   0  0  0  0  0  0  0  0  0  0  0  0
  -17.0378   -0.2520  -16.1744 H   0  0  0  0  0  0  0  0  0  0  0  0
  -15.4950    0.7915  -15.1200 C   0  0  0  0  0  0  0  0  0  0  0  0
  -14.8996   -0.2356  -14.1445 C   0  0  0  0  0  0  0  0  0  0  0  0
  -13.7520   -0.7802  -14.6109 F   0  0  0  0  0  0  0  0  0  0  0  0
  -14.5928    0.3721  -12.9701 F   0  0  0  0  0  0  0  0  0  0  0  0
  -15.7586   -1.2361  -13.8637 F   0  0  0  0  0  0  0  0  0  0  0  0
  -27.7606   -2.5746   -8.9082 C   0  0  0  0  0  0  0  0  0  0  0  0
  -27.0055   -2.1113   -9.8649 C   0  0  0  0  0  0  0  0  0  0  0  0
  -27.8592   -1.4906   -6.0810 C   0  0  0  0  0  0  0  0  0  0  0  0
  -28.6319   -2.6064   -6.5738 N   0  0  0  0  0  0  0  0  0  0  0  0
  -29.5363   -3.3749   -5.8742 C   0  0  0  0  0  0  0  0  0  0  0  0
  -29.9824   -4.2995   -6.7966 C   0  0  0  0  0  0  0  0  0  0  0  0
  -29.3805   -4.1181   -8.0131 N   0  0  0  0  0  0  0  0  0  0  0  0
  -28.5733   -3.0909   -7.8602 C   0  0  0  0  0  0  0  0  0  0  0  0
  -29.9125   -3.1724   -4.4593 C   0  0  0  0  0  0  0  0  0  0  0  0
  -29.3091   -4.2150   -3.7111 O   0  0  0  0  0  0  0  0  0  0  0  0
  -29.6776   -5.0496   -4.0496 H   0  0  0  0  0  0  0  0  0  0  0  0
 29 30  1  0  0  0
 30 31  1  0  0  0
 30 34  1  0  0  0
 31 35  1  0  0  0
 31 32  2  0  0  0
 35 36  1  0  0  0
 36 37  1  0  0  0
 32 33  1  0  0  0
 33 34  2  0  0  0
 34 27  1  0  0  0
 27 28  3  0  0  0
 28  1  1  0  0  0
  1  2  1  0  0  0
  1  9  2  0  0  0
  2  3  2  0  0  0
  3  4  1  0  0  0
  4  5  1  0  0  0
  4  8  1  0  0  0
  5 10  1  0  0  0
  5  6  2  0  0  0
 10 11  1  0  0  0
 10 15  2  0  0  0
 11 12  2  0  0  0
 12 13  1  0  0  0
 13 14  2  0  0  0
 14 16  1  0  0  0
 14 15  1  0  0  0
 16 17  1  0  0  0
 16 20  1  0  0  0
 17 18  2  0  0  0
 17 19  1  0  0  0
 19 22  1  0  0  0
 19 21  1  0  0  0
 22 23  1  0  0  0
 23 24  1  0  0  0
 23 25  1  0  0  0
 23 26  1  0  0  0
  6  7  1  0  0  0
  7  8  2  0  0  0
  8  9  1  0  0  0
M  END
> <minimizedAffinity>
-9.70224

$$$$
