CHEMBL2088106


 26 28  0  0  0  0  0  0  0  0999 V2000
  -17.1303    2.1602  -15.0743 C   0  0  0  0  0  0  0  0  0  0  0  0
  -17.1469    1.2045  -14.1256 N   0  0  0  0  0  0  0  0  0  0  0  0
  -16.0066    0.6414  -13.7204 C   0  0  0  0  0  0  0  0  0  0  0  0
  -14.8089    0.9859  -14.2029 N   0  0  0  0  0  0  0  0  0  0  0  0
  -14.7995    1.9416  -15.1567 C   0  0  0  0  0  0  0  0  0  0  0  0
  -15.9314    2.5579  -15.6423 C   0  0  0  0  0  0  0  0  0  0  0  0
  -15.7974    3.8803  -16.9825 Br  0  0  0  0  0  0  0  0  0  0  0  0
  -18.3439    2.7701  -15.4580 N   0  0  0  0  0  0  0  0  0  0  0  0
  -18.2259    3.5776  -16.0564 H   0  0  0  0  0  0  0  0  0  0  0  0
  -22.5375    0.6958  -13.7956 C   0  0  0  0  0  0  0  0  0  0  0  0
  -21.4542    1.5899  -14.2508 C   0  0  0  0  0  0  0  0  0  0  0  0
  -20.2234    1.3112  -14.7964 C   0  0  0  0  0  0  0  0  0  0  0  0
  -19.5954    2.5645  -14.9963 C   0  0  0  0  0  0  0  0  0  0  0  0
  -20.4071    3.5652  -14.6406 N   0  0  0  0  0  0  0  0  0  0  0  0
  -21.5098    2.9514  -14.1754 N   0  0  0  0  0  0  0  0  0  0  0  0
  -22.2600    3.5272  -13.8096 H   0  0  0  0  0  0  0  0  0  0  0  0
  -16.1591   -0.3822  -12.8023 N   0  0  0  0  0  0  0  0  0  0  0  0
  -16.1869    0.0751  -11.8910 H   0  0  0  0  0  0  0  0  0  0  0  0
  -15.1661   -1.4453  -12.8207 C   0  0  0  0  0  0  0  0  0  0  0  0
  -15.8007   -2.8286  -12.7180 C   0  0  0  0  0  0  0  0  0  0  0  0
  -16.0755   -3.4583  -13.8992 N   0  0  0  0  0  0  0  0  0  0  0  0
  -16.5834   -4.7079  -13.8445 C   0  0  0  0  0  0  0  0  0  0  0  0
  -16.8261   -5.3871  -12.6664 C   0  0  0  0  0  0  0  0  0  0  0  0
  -16.5246   -4.7496  -11.4694 C   0  0  0  0  0  0  0  0  0  0  0  0
  -15.9945   -3.4530  -11.4762 C   0  0  0  0  0  0  0  0  0  0  0  0
  -15.6407   -2.7919  -10.1769 C   0  0  0  0  0  0  0  0  0  0  0  0
 10 11  1  0  0  0
 11 12  2  0  0  0
 11 15  1  0  0  0
 12 13  1  0  0  0
 13  8  1  0  0  0
 13 14  2  0  0  0
  8  1  1  0  0  0
  8  9  1  0  0  0
  1  2  1  0  0  0
  1  6  2  0  0  0
  2  3  2  0  0  0
  3 17  1  0  0  0
  3  4  1  0  0  0
 17 19  1  0  0  0
 17 18  1  0  0  0
 19 20  1  0  0  0
 20 21  1  0  0  0
 20 25  2  0  0  0
 21 22  2  0  0  0
 22 23  1  0  0  0
 23 24  2  0  0  0
 24 25  1  0  0  0
 25 26  1  0  0  0
  4  5  2  0  0  0
  5  6  1  0  0  0
  6  7  1  0  0  0
 14 15  1  0  0  0
 15 16  1  0  0  0
M  END
> <minimizedAffinity>
-8.34504

$$$$
