CHEMBL1241770


 28 31  0  0  0  0  0  0  0  0999 V2000
  -16.5037    0.3944  -13.1269 N   0  0  0  0  0  0  0  0  0  0  0  0
  -15.7080    1.0783  -14.0315 C   0  0  0  0  0  0  0  0  0  0  0  0
  -14.3812    0.8585  -13.9178 N   0  0  0  0  0  0  0  0  0  0  0  0
  -13.5446    1.4857  -14.7624 C   0  0  0  0  0  0  0  0  0  0  0  0
  -13.8584    2.3456  -15.7412 N   0  0  0  0  0  0  0  0  0  0  0  0
  -15.1854    2.5417  -15.8218 C   0  0  0  0  0  0  0  0  0  0  0  0
  -16.1646    1.9541  -15.0317 C   0  0  0  0  0  0  0  0  0  0  0  0
  -17.4002    2.4564  -15.5551 C   0  0  0  0  0  0  0  0  0  0  0  0
  -17.1812    3.3235  -16.5660 N   0  0  0  0  0  0  0  0  0  0  0  0
  -15.8384    3.3412  -16.7203 N   0  0  0  0  0  0  0  0  0  0  0  0
  -15.9484   -0.0190  -12.3864 H   0  0  0  0  0  0  0  0  0  0  0  0
  -17.3555    0.8545  -12.8364 H   0  0  0  0  0  0  0  0  0  0  0  0
  -18.7787    2.1449  -15.1462 C   0  0  0  0  0  0  0  0  0  0  0  0
  -19.2415    0.8172  -15.1742 C   0  0  0  0  0  0  0  0  0  0  0  0
  -20.5577    0.5039  -14.8096 C   0  0  0  0  0  0  0  0  0  0  0  0
  -21.4288    1.5201  -14.4269 C   0  0  0  0  0  0  0  0  0  0  0  0
  -23.0566    1.1408  -14.0071 Cl  0  0  0  0  0  0  0  0  0  0  0  0
  -20.9753    2.8378  -14.3819 C   0  0  0  0  0  0  0  0  0  0  0  0
  -21.7946    3.8777  -14.0349 O   0  0  0  0  0  0  0  0  0  0  0  0
  -19.6550    3.1462  -14.7065 C   0  0  0  0  0  0  0  0  0  0  0  0
  -22.6784    3.5049  -13.8561 H   0  0  0  0  0  0  0  0  0  0  0  0
  -15.2661    3.9304  -17.9193 C   0  0  0  0  0  0  0  0  0  0  0  0
  -14.7775    5.3830  -17.8572 C   0  0  0  0  0  0  0  0  0  0  0  0
  -14.8027    6.1589  -19.1748 C   0  0  0  0  0  0  0  0  0  0  0  0
  -13.3984    6.7143  -19.3370 C   0  0  0  0  0  0  0  0  0  0  0  0
  -12.8224    6.7439  -17.9924 N   0  0  0  0  0  0  0  0  0  0  0  0
  -13.3732    5.5730  -17.2996 C   0  0  0  0  0  0  0  0  0  0  0  0
  -13.1227    7.5929  -17.5151 H   0  0  0  0  0  0  0  0  0  0  0  0
  1  2  1  0  0  0
  1 11  1  0  0  0
  1 12  1  0  0  0
  2  3  1  0  0  0
  2  7  2  0  0  0
  3  4  2  0  0  0
  4  5  1  0  0  0
  5  6  2  0  0  0
  6  7  1  0  0  0
  6 10  1  0  0  0
  7  8  1  0  0  0
  8 13  1  0  0  0
  8  9  2  0  0  0
 13 14  1  0  0  0
 13 20  2  0  0  0
 14 15  2  0  0  0
 15 16  1  0  0  0
 16 17  1  0  0  0
 16 18  2  0  0  0
 18 19  1  0  0  0
 18 20  1  0  0  0
 19 21  1  0  0  0
  9 10  1  0  0  0
 10 22  1  0  0  0
 22 23  1  0  0  0
 23 24  1  0  0  0
 23 27  1  0  0  0
 24 25  1  0  0  0
 25 26  1  0  0  0
 26 27  1  0  0  0
 26 28  1  0  0  0
M  END
> <minimizedAffinity>
-7.84159

$$$$
