CHEMBL249303


 36 41  0  0  0  0  0  0  0  0999 V2000
  -27.1071   -1.8466  -12.5132 C   0  0  0  0  0  0  0  0  0  0  0  0
  -27.9122   -2.6163  -13.2635 N   0  0  0  0  0  0  0  0  0  0  0  0
  -27.4067   -2.4481  -14.5121 N   0  0  0  0  0  0  0  0  0  0  0  0
  -26.3127   -1.6310  -14.5645 C   0  0  0  0  0  0  0  0  0  0  0  0
  -25.5545   -1.3537  -15.6395 N   0  0  0  0  0  0  0  0  0  0  0  0
  -24.5285   -0.5033  -15.3400 C   0  0  0  0  0  0  0  0  0  0  0  0
  -24.2661    0.1280  -14.1130 C   0  0  0  0  0  0  0  0  0  0  0  0
  -25.0970   -0.2460  -13.0481 C   0  0  0  0  0  0  0  0  0  0  0  0
  -26.1338   -1.1637  -13.2794 C   0  0  0  0  0  0  0  0  0  0  0  0
  -27.8322   -2.9350  -15.2911 H   0  0  0  0  0  0  0  0  0  0  0  0
  -27.8832   -3.0549   -7.8294 C   0  0  0  0  0  0  0  0  0  0  0  0
  -27.9833   -2.2978   -6.6451 C   0  0  0  0  0  0  0  0  0  0  0  0
  -27.7637   -0.9144   -6.6378 C   0  0  0  0  0  0  0  0  0  0  0  0
  -27.4373   -0.2173   -7.8067 C   0  0  0  0  0  0  0  0  0  0  0  0
  -27.3358   -0.9757   -8.9712 C   0  0  0  0  0  0  0  0  0  0  0  0
  -27.0768   -0.6429  -10.2796 N   0  0  0  0  0  0  0  0  0  0  0  0
  -27.1637   -1.7846  -11.0284 C   0  0  0  0  0  0  0  0  0  0  0  0
  -27.3931   -2.8353  -10.2701 N   0  0  0  0  0  0  0  0  0  0  0  0
  -27.5379   -2.3520   -8.9989 C   0  0  0  0  0  0  0  0  0  0  0  0
  -26.9280    0.2805  -10.6592 H   0  0  0  0  0  0  0  0  0  0  0  0
  -28.1801   -4.5395   -7.8483 C   0  0  0  0  0  0  0  0  0  0  0  0
  -29.1069   -4.9897   -6.7851 N   0  0  0  0  0  0  0  0  0  0  0  0
  -29.9569   -7.2294   -7.5513 C   0  0  0  0  0  0  0  0  0  0  0  0
  -30.2474   -5.7444   -7.3374 C   0  0  0  0  0  0  0  0  0  0  0  0
  -28.3776   -5.7220   -5.7325 C   0  0  0  0  0  0  0  0  0  0  0  0
  -28.5468   -5.2222   -4.2968 C   0  0  0  0  0  0  0  0  0  0  0  0
  -23.1747    1.1133  -13.9090 C   0  0  0  0  0  0  0  0  0  0  0  0
  -23.4557    2.3254  -13.2594 C   0  0  0  0  0  0  0  0  0  0  0  0
  -22.5691    3.3140  -13.0092 N   0  0  0  0  0  0  0  0  0  0  0  0
  -21.3027    3.0857  -13.4062 C   0  0  0  0  0  0  0  0  0  0  0  0
  -20.8713    1.9304  -14.0511 C   0  0  0  0  0  0  0  0  0  0  0  0
  -19.5208    1.7642  -14.4089 C   0  0  0  0  0  0  0  0  0  0  0  0
  -19.0911    0.6141  -15.0643 C   0  0  0  0  0  0  0  0  0  0  0  0
  -20.0124   -0.3608  -15.4135 C   0  0  0  0  0  0  0  0  0  0  0  0
  -21.3600   -0.1910  -15.0839 C   0  0  0  0  0  0  0  0  0  0  0  0
  -21.8272    0.9270  -14.3477 C   0  0  0  0  0  0  0  0  0  0  0  0
 23 24  1  0  0  0
 24 22  1  0  0  0
 22 25  1  0  0  0
 22 21  1  0  0  0
 25 26  1  0  0  0
 21 11  1  0  0  0
 11 12  1  0  0  0
 11 19  2  0  0  0
 12 13  2  0  0  0
 13 14  1  0  0  0
 14 15  2  0  0  0
 15 16  1  0  0  0
 15 19  1  0  0  0
 16 17  1  0  0  0
 16 20  1  0  0  0
 17  1  1  0  0  0
 17 18  2  0  0  0
  1  2  2  0  0  0
  1  9  1  0  0  0
  2  3  1  0  0  0
  3  4  1  0  0  0
  3 10  1  0  0  0
  4  5  1  0  0  0
  4  9  2  0  0  0
  5  6  2  0  0  0
  6  7  1  0  0  0
  7 27  1  0  0  0
  7  8  2  0  0  0
 27 28  1  0  0  0
 27 36  2  0  0  0
 28 29  2  0  0  0
 29 30  1  0  0  0
 30 31  2  0  0  0
 31 32  1  0  0  0
 31 36  1  0  0  0
 32 33  2  0  0  0
 33 34  1  0  0  0
 34 35  2  0  0  0
 35 36  1  0  0  0
  8  9  1  0  0  0
 18 19  1  0  0  0
M  END
> <minimizedAffinity>
-4.27729

$$$$
