CHEMBL3929648


 41 45  0  0  0  0  0  0  0  0999 V2000
  -29.3969   -3.9892   -7.1397 N   0  0  0  0  0  0  0  0  0  0  0  0
  -28.4111   -3.3868   -8.0180 C   0  0  0  0  0  0  0  0  0  0  0  0
  -28.3128   -2.0522   -7.8682 C   0  0  0  0  0  0  0  0  0  0  0  0
  -27.6935   -1.3298   -8.8500 C   0  0  0  0  0  0  0  0  0  0  0  0
  -27.2442   -1.8367  -10.0265 C   0  0  0  0  0  0  0  0  0  0  0  0
  -27.4770   -0.9516  -10.8997 N   0  0  0  0  0  0  0  0  0  0  0  0
  -26.4143   -0.4649  -11.4794 C   0  0  0  0  0  0  0  0  0  0  0  0
  -25.3160   -1.1711  -11.7953 C   0  0  0  0  0  0  0  0  0  0  0  0
  -25.4333   -2.5621  -11.3348 N   0  0  0  0  0  0  0  0  0  0  0  0
  -26.5433   -3.0234  -10.1828 C   0  0  0  0  0  0  0  0  0  0  0  0
  -27.4684   -3.9159   -9.0851 C   0  0  0  0  0  0  0  0  0  0  0  0
  -24.3984   -0.1868  -12.7088 C   0  0  0  0  0  0  0  0  0  0  0  0
  -24.1597    1.2374  -12.8863 C   0  0  0  0  0  0  0  0  0  0  0  0
  -23.0613    1.5661  -13.6044 N   0  0  0  0  0  0  0  0  0  0  0  0
  -22.4816    0.3953  -13.9235 N   0  0  0  0  0  0  0  0  0  0  0  0
  -23.2442   -0.6570  -13.4331 C   0  0  0  0  0  0  0  0  0  0  0  0
  -21.2543    0.3933  -14.7646 C   0  0  0  0  0  0  0  0  0  0  0  0
  -20.2970    1.6003  -14.6542 C   0  0  0  0  0  0  0  0  0  0  0  0
  -20.8401    2.7548  -15.2838 O   0  0  0  0  0  0  0  0  0  0  0  0
  -20.8375    2.5734  -16.2394 H   0  0  0  0  0  0  0  0  0  0  0  0
  -29.0225   -7.3748   -5.5722 C   0  0  0  0  0  0  0  0  0  0  0  0
  -30.1016   -8.0579   -6.1123 C   0  0  0  0  0  0  0  0  0  0  0  0
  -30.9142   -7.4276   -7.0612 C   0  0  0  0  0  0  0  0  0  0  0  0
  -30.6501   -6.0967   -7.4534 C   0  0  0  0  0  0  0  0  0  0  0  0
  -29.6149   -5.3586   -6.8678 C   0  0  0  0  0  0  0  0  0  0  0  0
  -28.7833   -6.0566   -5.9771 C   0  0  0  0  0  0  0  0  0  0  0  0
  -25.9507   -8.8643   -3.9356 C   0  0  0  0  0  0  0  0  0  0  0  0
  -26.8814   -8.2813   -4.8598 N   0  0  0  0  0  0  0  0  0  0  0  0
  -28.1935   -8.0206   -4.5105 C   0  0  0  0  0  0  0  0  0  0  0  0
  -28.6659   -8.2582   -3.3984 O   0  0  0  0  0  0  0  0  0  0  0  0
  -26.5107   -7.9356   -5.7311 H   0  0  0  0  0  0  0  0  0  0  0  0
  -32.0205   -8.0092   -7.6313 O   0  0  0  0  0  0  0  0  0  0  0  0
  -31.8682   -9.3827   -7.9900 C   0  0  0  0  0  0  0  0  0  0  0  0
  -30.2888   -2.9763   -6.3303 C   0  0  0  0  0  0  0  0  0  0  0  0
  -29.8534   -2.5567   -4.8888 C   0  0  0  0  0  0  0  0  0  0  0  0
  -28.5937   -1.6569   -4.7893 C   0  0  0  0  0  0  0  0  0  0  0  0
  -28.9619   -0.2532   -4.4724 N   0  0  0  0  0  0  0  0  0  0  0  0
  -30.1778    0.1790   -5.1825 C   0  0  0  0  0  0  0  0  0  0  0  0
  -29.6595    0.7238   -6.4985 C   0  0  0  0  0  0  0  0  0  0  0  0
  -28.4214    1.4839   -6.0702 C   0  0  0  0  0  0  0  0  0  0  0  0
  -27.9344    0.7466   -4.8274 C   0  0  0  0  0  0  0  0  0  0  0  0
 27 28  1  0  0  0
 28 29  1  0  0  0
 28 31  1  0  0  0
 29 30  2  0  0  0
 29 21  1  0  0  0
 21 22  1  0  0  0
 21 26  2  0  0  0
 22 23  2  0  0  0
 23 32  1  0  0  0
 23 24  1  0  0  0
 32 33  1  0  0  0
 24 25  2  0  0  0
 25  1  1  0  0  0
 25 26  1  0  0  0
  1 34  1  0  0  0
  1  2  1  0  0  0
 34 35  1  0  0  0
 35 36  1  0  0  0
 36 37  1  0  0  0
 37 38  1  0  0  0
 37 41  1  0  0  0
 38 39  1  0  0  0
 39 40  1  0  0  0
 40 41  1  0  0  0
  2  3  1  0  0  0
  2 11  2  0  0  0
  3  4  2  0  0  0
  4  5  1  0  0  0
  5  6  1  0  0  0
  5 10  2  0  0  0
  6  7  2  0  0  0
  7  8  1  0  0  0
  8 12  1  0  0  0
  8  9  2  0  0  0
 12 13  1  0  0  0
 12 16  2  0  0  0
 13 14  2  0  0  0
 14 15  1  0  0  0
 15 17  1  0  0  0
 15 16  1  0  0  0
 17 18  1  0  0  0
 18 19  1  0  0  0
 19 20  1  0  0  0
  9 10  1  0  0  0
 10 11  1  0  0  0
M  END
> <minimizedAffinity>
-6.38264

$$$$
