CHEMBL43949


 25 28  0  0  0  0  0  0  0  0999 V2000
  -14.8361   -0.3556  -13.7819 C   0  0  0  0  0  0  0  0  0  0  0  0
  -13.9911   -1.0802  -14.5237 N   0  0  0  0  0  0  0  0  0  0  0  0
  -13.5978   -0.5378  -15.6956 C   0  0  0  0  0  0  0  0  0  0  0  0
  -14.0073    0.6929  -16.1538 C   0  0  0  0  0  0  0  0  0  0  0  0
  -14.8126    1.3941  -15.2923 C   0  0  0  0  0  0  0  0  0  0  0  0
  -15.2358    0.8703  -14.1299 N   0  0  0  0  0  0  0  0  0  0  0  0
  -15.2251    2.7220  -15.5820 N   0  0  0  0  0  0  0  0  0  0  0  0
  -14.3836    3.7910  -15.8153 C   0  0  0  0  0  0  0  0  0  0  0  0
  -15.1890    4.8044  -16.2688 C   0  0  0  0  0  0  0  0  0  0  0  0
  -16.5019    4.4344  -16.2265 N   0  0  0  0  0  0  0  0  0  0  0  0
  -16.5332    3.1935  -15.7545 C   0  0  0  0  0  0  0  0  0  0  0  0
  -17.7850    2.4791  -15.4164 C   0  0  0  0  0  0  0  0  0  0  0  0
  -18.8864    3.2001  -14.9337 C   0  0  0  0  0  0  0  0  0  0  0  0
  -20.0991    2.5594  -14.6522 C   0  0  0  0  0  0  0  0  0  0  0  0
  -20.2317    1.1879  -14.8564 C   0  0  0  0  0  0  0  0  0  0  0  0
  -19.1379    0.4487  -15.2893 C   0  0  0  0  0  0  0  0  0  0  0  0
  -17.9173    1.0853  -15.5263 C   0  0  0  0  0  0  0  0  0  0  0  0
  -15.3075   -0.8918  -12.5837 N   0  0  0  0  0  0  0  0  0  0  0  0
  -14.8047   -0.4867  -11.8067 H   0  0  0  0  0  0  0  0  0  0  0  0
  -16.5209   -4.8857  -11.9378 C   0  0  0  0  0  0  0  0  0  0  0  0
  -16.4743   -4.3827  -13.2329 C   0  0  0  0  0  0  0  0  0  0  0  0
  -16.0676   -3.0666  -13.4510 C   0  0  0  0  0  0  0  0  0  0  0  0
  -15.7066   -2.2293  -12.3842 C   0  0  0  0  0  0  0  0  0  0  0  0
  -15.7341   -2.7578  -11.0908 C   0  0  0  0  0  0  0  0  0  0  0  0
  -16.1504   -4.0764  -10.8663 C   0  0  0  0  0  0  0  0  0  0  0  0
 20 21  1  0  0  0
 20 25  2  0  0  0
 21 22  2  0  0  0
 22 23  1  0  0  0
 23 18  1  0  0  0
 23 24  2  0  0  0
 18  1  1  0  0  0
 18 19  1  0  0  0
  1  2  1  0  0  0
  1  6  2  0  0  0
  2  3  2  0  0  0
  3  4  1  0  0  0
  4  5  2  0  0  0
  5  7  1  0  0  0
  5  6  1  0  0  0
  7  8  1  0  0  0
  7 11  1  0  0  0
  8  9  2  0  0  0
  9 10  1  0  0  0
 10 11  2  0  0  0
 11 12  1  0  0  0
 12 13  1  0  0  0
 12 17  2  0  0  0
 13 14  2  0  0  0
 14 15  1  0  0  0
 15 16  2  0  0  0
 16 17  1  0  0  0
 24 25  1  0  0  0
M  END
> <minimizedAffinity>
-8.31144

$$$$
