CHEMBL3907491


 37 40  0  0  0  0  0  0  0  0999 V2000
  -14.4704    1.3957  -16.5433 C   0  0  0  0  0  0  0  0  0  0  0  0
  -13.6834    2.3239  -17.1396 N   0  0  0  0  0  0  0  0  0  0  0  0
  -14.1903    3.5518  -17.3756 C   0  0  0  0  0  0  0  0  0  0  0  0
  -15.4144    4.0172  -17.0769 N   0  0  0  0  0  0  0  0  0  0  0  0
  -16.1557    3.0738  -16.4796 C   0  0  0  0  0  0  0  0  0  0  0  0
  -17.4506    3.2416  -16.0736 N   0  0  0  0  0  0  0  0  0  0  0  0
  -17.9488    2.0676  -15.5469 C   0  0  0  0  0  0  0  0  0  0  0  0
  -16.9018    1.1559  -15.5818 C   0  0  0  0  0  0  0  0  0  0  0  0
  -15.7728    1.7791  -16.1797 C   0  0  0  0  0  0  0  0  0  0  0  0
  -17.9560    4.1077  -16.1738 H   0  0  0  0  0  0  0  0  0  0  0  0
  -19.3299    1.9148  -15.0820 C   0  0  0  0  0  0  0  0  0  0  0  0
  -19.9761    0.6726  -15.1044 C   0  0  0  0  0  0  0  0  0  0  0  0
  -21.2821    0.5363  -14.6217 C   0  0  0  0  0  0  0  0  0  0  0  0
  -21.9710    1.6402  -14.1017 C   0  0  0  0  0  0  0  0  0  0  0  0
  -21.3300    2.8845  -14.0876 C   0  0  0  0  0  0  0  0  0  0  0  0
  -20.0251    3.0186  -14.5711 C   0  0  0  0  0  0  0  0  0  0  0  0
  -23.3839    1.4973  -13.5869 C   0  0  0  0  0  0  0  0  0  0  0  0
  -23.6307    0.1490  -13.0663 N   0  0  0  0  0  0  0  0  0  0  0  0
  -22.7419   -0.2347  -12.7444 H   0  0  0  0  0  0  0  0  0  0  0  0
  -24.5878    0.1992  -11.9560 C   0  0  0  0  0  0  0  0  0  0  0  0
  -25.1392   -1.1940  -11.6683 C   0  0  0  0  0  0  0  0  0  0  0  0
  -26.1395   -1.6089  -12.7228 C   0  0  0  0  0  0  0  0  0  0  0  0
  -25.9463   -1.5401  -13.9343 O   0  0  0  0  0  0  0  0  0  0  0  0
  -27.3245   -2.0694  -12.2038 N   0  0  0  0  0  0  0  0  0  0  0  0
  -28.2814   -2.5264  -13.1363 O   0  0  0  0  0  0  0  0  0  0  0  0
  -27.4846   -2.2905  -11.2272 H   0  0  0  0  0  0  0  0  0  0  0  0
  -27.8332   -2.3606  -13.9952 H   0  0  0  0  0  0  0  0  0  0  0  0
  -14.0046    0.0920  -16.3124 N   0  0  0  0  0  0  0  0  0  0  0  0
  -14.8267   -0.5108  -16.3385 H   0  0  0  0  0  0  0  0  0  0  0  0
  -11.9306   -0.7176  -15.2246 C   0  0  0  0  0  0  0  0  0  0  0  0
  -13.3188   -0.0950  -15.0228 C   0  0  0  0  0  0  0  0  0  0  0  0
  -14.1363   -1.0109  -14.1136 C   0  0  0  0  0  0  0  0  0  0  0  0
  -14.1538   -2.3934  -14.3702 C   0  0  0  0  0  0  0  0  0  0  0  0
  -14.9443   -3.2554  -13.6071 C   0  0  0  0  0  0  0  0  0  0  0  0
  -15.7280   -2.7502  -12.5728 C   0  0  0  0  0  0  0  0  0  0  0  0
  -15.7261   -1.3816  -12.3063 C   0  0  0  0  0  0  0  0  0  0  0  0
  -14.9419   -0.5172  -13.0742 C   0  0  0  0  0  0  0  0  0  0  0  0
 30 31  1  0  0  0
 31 28  1  0  0  0
 31 32  1  0  0  0
 28  1  1  0  0  0
 28 29  1  0  0  0
  1  2  1  0  0  0
  1  9  2  0  0  0
  2  3  2  0  0  0
  3  4  1  0  0  0
  4  5  2  0  0  0
  5  6  1  0  0  0
  5  9  1  0  0  0
  6  7  1  0  0  0
  6 10  1  0  0  0
  7 11  1  0  0  0
  7  8  2  0  0  0
 11 12  1  0  0  0
 11 16  2  0  0  0
 12 13  2  0  0  0
 13 14  1  0  0  0
 14 17  1  0  0  0
 14 15  2  0  0  0
 17 18  1  0  0  0
 18 20  1  0  0  0
 18 19  1  0  0  0
 20 21  1  0  0  0
 21 22  1  0  0  0
 22 23  2  0  0  0
 22 24  1  0  0  0
 24 25  1  0  0  0
 24 26  1  0  0  0
 25 27  1  0  0  0
 15 16  1  0  0  0
  8  9  1  0  0  0
 32 33  1  0  0  0
 32 37  2  0  0  0
 33 34  2  0  0  0
 34 35  1  0  0  0
 35 36  2  0  0  0
 36 37  1  0  0  0
M  END
> <minimizedAffinity>
-9.24954

$$$$
