CHEMBL2018750


 30 32  0  0  0  0  0  0  0  0999 V2000
  -22.0863   -0.3118  -14.0563 N   0  0  0  0  0  0  0  0  0  0  0  0
  -21.9137   -0.7834  -14.9364 H   0  0  0  0  0  0  0  0  0  0  0  0
  -18.0592    2.6412  -15.0340 C   0  0  0  0  0  0  0  0  0  0  0  0
  -19.1975    3.4527  -14.8586 C   0  0  0  0  0  0  0  0  0  0  0  0
  -20.4595    2.9333  -14.6117 C   0  0  0  0  0  0  0  0  0  0  0  0
  -21.4669    3.7794  -14.3702 N   0  0  0  0  0  0  0  0  0  0  0  0
  -22.6427    3.2316  -14.0530 C   0  0  0  0  0  0  0  0  0  0  0  0
  -22.8968    1.9268  -13.9514 N   0  0  0  0  0  0  0  0  0  0  0  0
  -21.8821    1.0834  -14.2140 C   0  0  0  0  0  0  0  0  0  0  0  0
  -20.6099    1.5492  -14.5841 C   0  0  0  0  0  0  0  0  0  0  0  0
  -19.4998    0.7255  -14.8691 C   0  0  0  0  0  0  0  0  0  0  0  0
  -18.2228    1.2541  -15.0891 C   0  0  0  0  0  0  0  0  0  0  0  0
  -16.4507    3.6604  -16.4482 C   0  0  0  0  0  0  0  0  0  0  0  0
  -16.8066    3.1868  -15.1455 O   0  0  0  0  0  0  0  0  0  0  0  0
  -17.3129    0.2570  -15.2828 O   0  0  0  0  0  0  0  0  0  0  0  0
  -16.3711   -0.0797  -14.2822 C   0  0  0  0  0  0  0  0  0  0  0  0
  -23.1299   -0.9019  -13.3164 C   0  0  0  0  0  0  0  0  0  0  0  0
  -24.3254   -1.2332  -13.9496 C   0  0  0  0  0  0  0  0  0  0  0  0
  -25.4001   -1.7350  -13.2130 C   0  0  0  0  0  0  0  0  0  0  0  0
  -25.3020   -1.9344  -11.8321 C   0  0  0  0  0  0  0  0  0  0  0  0
  -24.0700   -1.7116  -11.2155 C   0  0  0  0  0  0  0  0  0  0  0  0
  -22.9939   -1.2104  -11.9565 C   0  0  0  0  0  0  0  0  0  0  0  0
  -26.3898   -2.3229  -11.0257 N   0  0  0  0  0  0  0  0  0  0  0  0
  -27.5138   -1.5826  -10.7801 C   0  0  0  0  0  0  0  0  0  0  0  0
  -27.7920   -0.4864  -11.2454 O   0  0  0  0  0  0  0  0  0  0  0  0
  -26.3267   -3.1888  -10.5124 H   0  0  0  0  0  0  0  0  0  0  0  0
  -28.3303   -2.2512   -9.9086 O   0  0  0  0  0  0  0  0  0  0  0  0
  -27.7102   -2.5283   -8.6383 C   0  0  0  0  0  0  0  0  0  0  0  0
  -27.7429   -1.2704   -7.7750 C   0  0  0  0  0  0  0  0  0  0  0  0
  -28.4590   -3.6673   -7.9602 C   0  0  0  0  0  0  0  0  0  0  0  0
 13 14  1  0  0  0
 14  3  1  0  0  0
  3  4  1  0  0  0
  3 12  2  0  0  0
  4  5  2  0  0  0
  5  6  1  0  0  0
  5 10  1  0  0  0
  6  7  2  0  0  0
  7  8  1  0  0  0
  8  9  2  0  0  0
  9  1  1  0  0  0
  9 10  1  0  0  0
  1 17  1  0  0  0
  1  2  1  0  0  0
 17 18  1  0  0  0
 17 22  2  0  0  0
 18 19  2  0  0  0
 19 20  1  0  0  0
 20 23  1  0  0  0
 20 21  2  0  0  0
 23 24  1  0  0  0
 23 26  1  0  0  0
 24 25  2  0  0  0
 24 27  1  0  0  0
 27 28  1  0  0  0
 28 29  1  0  0  0
 28 30  1  0  0  0
 21 22  1  0  0  0
 10 11  2  0  0  0
 11 12  1  0  0  0
 12 15  1  0  0  0
 15 16  1  0  0  0
M  END
> <minimizedAffinity>
-8.95701

$$$$
