CHEMBL428876


 34 40  0  0  0  0  0  0  0  0999 V2000
  -12.7332    6.4310  -18.0542 C   0  0  0  0  0  0  0  0  0  0  0  0
  -13.5290    5.2516  -17.7996 N   0  0  0  0  0  0  0  0  0  0  0  0
  -14.2247    4.8323  -16.6682 C   0  0  0  0  0  0  0  0  0  0  0  0
  -14.7867    3.5842  -16.9655 C   0  0  0  0  0  0  0  0  0  0  0  0
  -13.9247    3.2442  -18.0929 C   0  0  0  0  0  0  0  0  0  0  0  0
  -13.3586    4.2746  -18.6947 N   0  0  0  0  0  0  0  0  0  0  0  0
  -13.3942    1.8755  -18.3481 C   0  0  0  0  0  0  0  0  0  0  0  0
  -14.3960    0.9259  -17.7733 C   0  0  0  0  0  0  0  0  0  0  0  0
  -14.4954    1.3317  -16.3183 C   0  0  0  0  0  0  0  0  0  0  0  0
  -15.2278    2.4987  -16.0333 C   0  0  0  0  0  0  0  0  0  0  0  0
  -16.4452    2.0613  -15.4393 C   0  0  0  0  0  0  0  0  0  0  0  0
  -16.5271    0.8166  -14.6564 C   0  0  0  0  0  0  0  0  0  0  0  0
  -15.3009    0.1364  -14.4311 C   0  0  0  0  0  0  0  0  0  0  0  0
  -14.2943    0.4762  -15.2813 C   0  0  0  0  0  0  0  0  0  0  0  0
  -13.2698   -0.3680  -15.0254 N   0  0  0  0  0  0  0  0  0  0  0  0
  -13.6432   -1.2638  -14.0591 C   0  0  0  0  0  0  0  0  0  0  0  0
  -12.8453   -2.2680  -13.5324 C   0  0  0  0  0  0  0  0  0  0  0  0
  -13.4835   -3.2053  -12.7488 C   0  0  0  0  0  0  0  0  0  0  0  0
  -14.8573   -3.1052  -12.4709 C   0  0  0  0  0  0  0  0  0  0  0  0
  -15.6375   -2.0283  -12.9588 C   0  0  0  0  0  0  0  0  0  0  0  0
  -15.0080   -1.0559  -13.7561 C   0  0  0  0  0  0  0  0  0  0  0  0
  -17.8982    0.3370  -14.4925 C   0  0  0  0  0  0  0  0  0  0  0  0
  -18.5961    1.4000  -15.1978 N   0  0  0  0  0  0  0  0  0  0  0  0
  -17.8097    2.4307  -15.7519 C   0  0  0  0  0  0  0  0  0  0  0  0
  -18.2938    3.3274  -16.4181 O   0  0  0  0  0  0  0  0  0  0  0  0
  -12.3802   -0.3495  -15.5020 H   0  0  0  0  0  0  0  0  0  0  0  0
  -19.5528    1.3054  -15.5187 H   0  0  0  0  0  0  0  0  0  0  0  0
  -15.5150   -4.2001  -11.7059 C   0  0  0  0  0  0  0  0  0  0  0  0
  -16.4395   -3.8817  -10.9597 O   0  0  0  0  0  0  0  0  0  0  0  0
  -15.0594   -5.5650  -11.9243 C   0  0  0  0  0  0  0  0  0  0  0  0
  -14.1877   -6.3287  -11.1666 C   0  0  0  0  0  0  0  0  0  0  0  0
  -13.9244   -7.5987  -11.7530 C   0  0  0  0  0  0  0  0  0  0  0  0
  -14.6299   -7.7791  -12.9206 C   0  0  0  0  0  0  0  0  0  0  0  0
  -15.6057   -6.4260  -13.2991 S   0  0  0  0  0  0  0  0  0  0  0  0
  1  2  1  0  0  0
  2  3  1  0  0  0
  2  6  1  0  0  0
  3  4  2  0  0  0
  4  5  1  0  0  0
  4 10  1  0  0  0
  5  6  2  0  0  0
  5  7  1  0  0  0
  7  8  1  0  0  0
  8  9  1  0  0  0
  9 10  1  0  0  0
  9 14  2  0  0  0
 10 11  2  0  0  0
 11 12  1  0  0  0
 11 24  1  0  0  0
 12 13  2  0  0  0
 12 22  1  0  0  0
 13 14  1  0  0  0
 13 21  1  0  0  0
 14 15  1  0  0  0
 15 16  1  0  0  0
 15 26  1  0  0  0
 16 17  1  0  0  0
 16 21  2  0  0  0
 17 18  2  0  0  0
 18 19  1  0  0  0
 19 28  1  0  0  0
 19 20  2  0  0  0
 28 29  2  0  0  0
 28 30  1  0  0  0
 30 31  2  0  0  0
 30 34  1  0  0  0
 31 32  1  0  0  0
 32 33  2  0  0  0
 33 34  1  0  0  0
 20 21  1  0  0  0
 22 23  1  0  0  0
 23 24  1  0  0  0
 23 27  1  0  0  0
 24 25  2  0  0  0
M  END
> <minimizedAffinity>
-8.40072

$$$$
