CHEMBL3690537


 37 40  0  0  0  0  0  0  0  0999 V2000
  -18.9206    2.0972  -15.1549 C   0  0  0  0  0  0  0  0  0  0  0  0
  -19.4409    0.7235  -15.1808 C   0  0  0  0  0  0  0  0  0  0  0  0
  -20.6990    0.4658  -14.7845 C   0  0  0  0  0  0  0  0  0  0  0  0
  -21.5062    1.4979  -14.3057 N   0  0  0  0  0  0  0  0  0  0  0  0
  -22.8044    1.4966  -13.8056 C   0  0  0  0  0  0  0  0  0  0  0  0
  -23.0651    2.8405  -13.5729 C   0  0  0  0  0  0  0  0  0  0  0  0
  -21.9956    3.6416  -13.8484 N   0  0  0  0  0  0  0  0  0  0  0  0
  -21.0636    2.8198  -14.2738 C   0  0  0  0  0  0  0  0  0  0  0  0
  -19.7317    3.0911  -14.7125 C   0  0  0  0  0  0  0  0  0  0  0  0
  -15.5224    1.7745  -16.4386 C   0  0  0  0  0  0  0  0  0  0  0  0
  -15.0900    3.0736  -16.5762 C   0  0  0  0  0  0  0  0  0  0  0  0
  -15.9931    4.0296  -16.1999 C   0  0  0  0  0  0  0  0  0  0  0  0
  -17.2189    3.7380  -15.7276 N   0  0  0  0  0  0  0  0  0  0  0  0
  -17.5530    2.4370  -15.6326 C   0  0  0  0  0  0  0  0  0  0  0  0
  -16.7458    1.4175  -15.9733 N   0  0  0  0  0  0  0  0  0  0  0  0
  -14.2545   -0.2116  -15.8463 N   0  0  0  0  0  0  0  0  0  0  0  0
  -14.6067    0.6649  -16.8383 C   0  0  0  0  0  0  0  0  0  0  0  0
  -14.1971    0.5309  -17.9809 O   0  0  0  0  0  0  0  0  0  0  0  0
  -13.6679   -1.0013  -16.0763 H   0  0  0  0  0  0  0  0  0  0  0  0
  -14.6369   -0.1094  -14.9152 H   0  0  0  0  0  0  0  0  0  0  0  0
  -23.6981    0.3395  -13.6377 C   0  0  0  0  0  0  0  0  0  0  0  0
  -24.0734   -0.3932  -14.7728 C   0  0  0  0  0  0  0  0  0  0  0  0
  -24.9226   -1.4913  -14.6647 C   0  0  0  0  0  0  0  0  0  0  0  0
  -25.3746   -1.9047  -13.4148 C   0  0  0  0  0  0  0  0  0  0  0  0
  -25.0062   -1.2138  -12.2582 C   0  0  0  0  0  0  0  0  0  0  0  0
  -24.2121   -0.0615  -12.3900 C   0  0  0  0  0  0  0  0  0  0  0  0
  -25.3789   -1.6302  -10.9567 N   0  0  0  0  0  0  0  0  0  0  0  0
  -26.6548   -1.6357  -10.4397 C   0  0  0  0  0  0  0  0  0  0  0  0
  -27.6830   -1.2794  -10.9984 O   0  0  0  0  0  0  0  0  0  0  0  0
  -26.6878   -2.0696   -9.1307 N   0  0  0  0  0  0  0  0  0  0  0  0
  -24.6436   -1.9778  -10.3610 H   0  0  0  0  0  0  0  0  0  0  0  0
  -26.0021   -2.7591   -8.8609 H   0  0  0  0  0  0  0  0  0  0  0  0
  -27.9974   -2.1356   -8.4643 C   0  0  0  0  0  0  0  0  0  0  0  0
  -28.0642   -1.5579   -7.0425 C   0  0  0  0  0  0  0  0  0  0  0  0
  -27.1975   -2.1706   -6.2029 F   0  0  0  0  0  0  0  0  0  0  0  0
  -27.7213   -0.2443   -7.0640 F   0  0  0  0  0  0  0  0  0  0  0  0
  -29.2999   -1.6392   -6.5082 F   0  0  0  0  0  0  0  0  0  0  0  0
 16 17  1  0  0  0
 16 19  1  0  0  0
 16 20  1  0  0  0
 17 18  2  0  0  0
 17 10  1  0  0  0
 10 11  1  0  0  0
 10 15  2  0  0  0
 11 12  2  0  0  0
 12 13  1  0  0  0
 13 14  2  0  0  0
 14  1  1  0  0  0
 14 15  1  0  0  0
  1  2  1  0  0  0
  1  9  2  0  0  0
  2  3  2  0  0  0
  3  4  1  0  0  0
  4  5  1  0  0  0
  4  8  1  0  0  0
  5 21  1  0  0  0
  5  6  2  0  0  0
 21 22  1  0  0  0
 21 26  2  0  0  0
 22 23  2  0  0  0
 23 24  1  0  0  0
 24 25  2  0  0  0
 25 27  1  0  0  0
 25 26  1  0  0  0
 27 28  1  0  0  0
 27 31  1  0  0  0
 28 29  2  0  0  0
 28 30  1  0  0  0
 30 33  1  0  0  0
 30 32  1  0  0  0
 33 34  1  0  0  0
 34 35  1  0  0  0
 34 36  1  0  0  0
 34 37  1  0  0  0
  6  7  1  0  0  0
  7  8  2  0  0  0
  8  9  1  0  0  0
M  END
> <minimizedAffinity>
-10.38261

$$$$
