CHEMBL250198


 25 28  0  0  0  0  0  0  0  0999 V2000
  -29.5523   -5.6841   -7.1912 C   0  0  0  0  0  0  0  0  0  0  0  0
  -29.2443   -6.6499   -6.3031 C   0  0  0  0  0  0  0  0  0  0  0  0
  -28.2729   -6.6699   -5.1808 C   0  0  0  0  0  0  0  0  0  0  0  0
  -27.6956   -5.7637   -4.6164 O   0  0  0  0  0  0  0  0  0  0  0  0
  -28.1861   -8.0150   -4.8600 N   0  0  0  0  0  0  0  0  0  0  0  0
  -29.1039   -8.8177   -5.4856 N   0  0  0  0  0  0  0  0  0  0  0  0
  -29.7778   -8.0470   -6.3065 C   0  0  0  0  0  0  0  0  0  0  0  0
  -27.6316   -8.3661   -4.0877 H   0  0  0  0  0  0  0  0  0  0  0  0
  -29.9219   -3.0969   -5.1097 C   0  0  0  0  0  0  0  0  0  0  0  0
  -29.7893   -1.8777   -4.4164 C   0  0  0  0  0  0  0  0  0  0  0  0
  -29.0626   -0.8176   -4.9455 C   0  0  0  0  0  0  0  0  0  0  0  0
  -28.4367   -0.9378   -6.1808 C   0  0  0  0  0  0  0  0  0  0  0  0
  -28.5357   -2.1626   -6.8593 C   0  0  0  0  0  0  0  0  0  0  0  0
  -29.2427   -3.2643   -6.3495 C   0  0  0  0  0  0  0  0  0  0  0  0
  -29.0639   -4.3421   -7.2987 C   0  0  0  0  0  0  0  0  0  0  0  0
  -28.3756   -3.8218   -8.3713 C   0  0  0  0  0  0  0  0  0  0  0  0
  -28.0152   -2.5375   -8.0764 N   0  0  0  0  0  0  0  0  0  0  0  0
  -27.2119   -1.6925   -8.9315 C   0  0  0  0  0  0  0  0  0  0  0  0
  -31.1468   -3.9042   -3.2721 C   0  0  0  0  0  0  0  0  0  0  0  0
  -30.6754   -4.1354   -4.6015 O   0  0  0  0  0  0  0  0  0  0  0  0
  -30.9232   -8.5285   -7.0128 C   0  0  0  0  0  0  0  0  0  0  0  0
  -32.2740   -8.2568   -6.8873 C   0  0  0  0  0  0  0  0  0  0  0  0
  -33.1107   -8.9841   -7.7190 N   0  0  0  0  0  0  0  0  0  0  0  0
  -32.4292   -9.8265   -8.4763 N   0  0  0  0  0  0  0  0  0  0  0  0
  -30.7815   -9.7624   -8.1996 S   0  0  0  0  0  0  0  0  0  0  0  0
 19 20  1  0  0  0
 20  9  1  0  0  0
  9 10  1  0  0  0
  9 14  2  0  0  0
 10 11  2  0  0  0
 11 12  1  0  0  0
 12 13  2  0  0  0
 13 14  1  0  0  0
 13 17  1  0  0  0
 14 15  1  0  0  0
 15  1  1  0  0  0
 15 16  2  0  0  0
  1  2  2  0  0  0
  2  3  1  0  0  0
  2  7  1  0  0  0
  3  4  2  0  0  0
  3  5  1  0  0  0
  5  6  1  0  0  0
  5  8  1  0  0  0
  6  7  2  0  0  0
  7 21  1  0  0  0
 21 22  2  0  0  0
 21 25  1  0  0  0
 22 23  1  0  0  0
 23 24  2  0  0  0
 24 25  1  0  0  0
 16 17  1  0  0  0
 17 18  1  0  0  0
M  END
> <minimizedAffinity>
-8.53030

$$$$
