CHEMBL4583526


 37 40  0  0  0  0  0  0  0  0999 V2000
  -18.9743    2.2604  -14.6520 C   0  0  0  0  0  0  0  0  0  0  0  0
  -18.4457    2.9207  -15.7708 C   0  0  0  0  0  0  0  0  0  0  0  0
  -17.1549    2.6417  -16.2154 C   0  0  0  0  0  0  0  0  0  0  0  0
  -16.3982    1.6868  -15.5430 C   0  0  0  0  0  0  0  0  0  0  0  0
  -16.8913    1.0753  -14.3769 C   0  0  0  0  0  0  0  0  0  0  0  0
  -18.1764    1.3802  -13.9191 C   0  0  0  0  0  0  0  0  0  0  0  0
  -22.4326    1.5658  -13.8445 N   0  0  0  0  0  0  0  0  0  0  0  0
  -21.1435    1.2675  -14.2514 C   0  0  0  0  0  0  0  0  0  0  0  0
  -20.7237    0.1420  -14.4967 O   0  0  0  0  0  0  0  0  0  0  0  0
  -20.3387    2.4052  -14.3019 N   0  0  0  0  0  0  0  0  0  0  0  0
  -22.7197    2.5306  -13.9215 H   0  0  0  0  0  0  0  0  0  0  0  0
  -20.5485    3.0891  -13.5885 H   0  0  0  0  0  0  0  0  0  0  0  0
  -25.4555   -1.2588  -12.8702 C   0  0  0  0  0  0  0  0  0  0  0  0
  -24.8990   -1.2326  -14.1471 C   0  0  0  0  0  0  0  0  0  0  0  0
  -23.9073   -0.3174  -14.4785 C   0  0  0  0  0  0  0  0  0  0  0  0
  -23.4371    0.6227  -13.5445 C   0  0  0  0  0  0  0  0  0  0  0  0
  -23.9888    0.5974  -12.2596 C   0  0  0  0  0  0  0  0  0  0  0  0
  -24.9857   -0.3360  -11.9286 C   0  0  0  0  0  0  0  0  0  0  0  0
  -27.1467   -1.6937  -11.2753 C   0  0  0  0  0  0  0  0  0  0  0  0
  -26.4427   -2.0983  -12.4449 O   0  0  0  0  0  0  0  0  0  0  0  0
  -15.0569    1.3359  -16.0630 C   0  0  0  0  0  0  0  0  0  0  0  0
  -14.9288    0.9742  -17.2251 O   0  0  0  0  0  0  0  0  0  0  0  0
  -14.0384    1.5055  -15.1399 N   0  0  0  0  0  0  0  0  0  0  0  0
  -14.2945    1.6869  -14.1705 H   0  0  0  0  0  0  0  0  0  0  0  0
  -12.8634    2.0385  -15.5886 N   0  0  0  0  0  0  0  0  0  0  0  0
  -12.1487    2.6472  -14.6982 C   0  0  0  0  0  0  0  0  0  0  0  0
  -12.3205    2.6789  -13.1772 C   0  0  0  0  0  0  0  0  0  0  0  0
  -12.9307    1.8705  -12.5146 O   0  0  0  0  0  0  0  0  0  0  0  0
  -11.7095    3.8433  -12.7798 N   0  0  0  0  0  0  0  0  0  0  0  0
  -11.3230    4.5784  -13.8959 C   0  0  0  0  0  0  0  0  0  0  0  0
  -11.3117    5.9518  -14.0087 C   0  0  0  0  0  0  0  0  0  0  0  0
  -11.2072    6.4864  -15.3031 C   0  0  0  0  0  0  0  0  0  0  0  0
  -11.0085    5.6517  -16.4239 C   0  0  0  0  0  0  0  0  0  0  0  0
  -10.8705    6.4158  -18.1476 Br  0  0  0  0  0  0  0  0  0  0  0  0
  -11.0445    4.2685  -16.3021 C   0  0  0  0  0  0  0  0  0  0  0  0
  -11.2945    3.7810  -15.0372 C   0  0  0  0  0  0  0  0  0  0  0  0
  -11.4679    4.0415  -11.8200 H   0  0  0  0  0  0  0  0  0  0  0  0
 19 20  1  0  0  0
 20 13  1  0  0  0
 13 14  1  0  0  0
 13 18  2  0  0  0
 14 15  2  0  0  0
 15 16  1  0  0  0
 16  7  1  0  0  0
 16 17  2  0  0  0
  7  8  1  0  0  0
  7 11  1  0  0  0
  8  9  2  0  0  0
  8 10  1  0  0  0
 10  1  1  0  0  0
 10 12  1  0  0  0
  1  2  1  0  0  0
  1  6  2  0  0  0
  2  3  2  0  0  0
  3  4  1  0  0  0
  4 21  1  0  0  0
  4  5  2  0  0  0
 21 22  2  0  0  0
 21 23  1  0  0  0
 23 25  1  0  0  0
 23 24  1  0  0  0
 25 26  2  0  0  0
 26 27  1  0  0  0
 26 36  1  0  0  0
 27 28  2  0  0  0
 27 29  1  0  0  0
 29 30  1  0  0  0
 29 37  1  0  0  0
 30 31  1  0  0  0
 30 36  2  0  0  0
 31 32  2  0  0  0
 32 33  1  0  0  0
 33 34  1  0  0  0
 33 35  2  0  0  0
 35 36  1  0  0  0
  5  6  1  0  0  0
 17 18  1  0  0  0
M  END
> <minimizedAffinity>
-9.38606

$$$$
