CHEMBL3955873


 40 45  0  0  0  0  0  0  0  0999 V2000
  -28.8626   -9.1739   -4.8799 C   0  0  0  0  0  0  0  0  0  0  0  0
  -28.0977   -9.9918   -5.7137 C   0  0  0  0  0  0  0  0  0  0  0  0
  -27.8327   -9.6259   -7.0531 C   0  0  0  0  0  0  0  0  0  0  0  0
  -27.0050  -10.3518   -7.9256 C   0  0  0  0  0  0  0  0  0  0  0  0
  -26.7048   -9.9021   -9.1533 N   0  0  0  0  0  0  0  0  0  0  0  0
  -27.2515   -8.7412   -9.5233 C   0  0  0  0  0  0  0  0  0  0  0  0
  -28.0869   -7.9959   -8.7929 N   0  0  0  0  0  0  0  0  0  0  0  0
  -28.3639   -8.4354   -7.5612 C   0  0  0  0  0  0  0  0  0  0  0  0
  -29.2138   -7.6907   -6.7516 C   0  0  0  0  0  0  0  0  0  0  0  0
  -29.5065   -8.0579   -5.4300 C   0  0  0  0  0  0  0  0  0  0  0  0
  -28.8267  -10.8005   -3.1464 C   0  0  0  0  0  0  0  0  0  0  0  0
  -28.9997   -9.4403   -3.5461 O   0  0  0  0  0  0  0  0  0  0  0  0
  -26.4697  -11.6057   -7.5105 N   0  0  0  0  0  0  0  0  0  0  0  0
  -26.5109  -12.2518   -8.2936 H   0  0  0  0  0  0  0  0  0  0  0  0
  -25.2829  -11.7353   -6.7549 C   0  0  0  0  0  0  0  0  0  0  0  0
  -25.3313  -12.2171   -5.4394 C   0  0  0  0  0  0  0  0  0  0  0  0
  -24.1828  -12.2705   -4.6494 C   0  0  0  0  0  0  0  0  0  0  0  0
  -22.9609  -11.8480   -5.1711 C   0  0  0  0  0  0  0  0  0  0  0  0
  -21.5884  -11.8761   -4.1232 Cl  0  0  0  0  0  0  0  0  0  0  0  0
  -22.8887  -11.4094   -6.4983 C   0  0  0  0  0  0  0  0  0  0  0  0
  -21.4051  -10.8847   -7.2154 Cl  0  0  0  0  0  0  0  0  0  0  0  0
  -24.0442  -11.3662   -7.2907 C   0  0  0  0  0  0  0  0  0  0  0  0
  -30.4068   -7.2226   -4.8100 O   0  0  0  0  0  0  0  0  0  0  0  0
  -29.8800   -6.4060   -3.7581 C   0  0  0  0  0  0  0  0  0  0  0  0
  -29.6738   -4.9921   -4.2307 C   0  0  0  0  0  0  0  0  0  0  0  0
  -29.1581   -4.7136   -5.4126 N   0  0  0  0  0  0  0  0  0  0  0  0
  -29.1895   -3.3508   -5.6548 C   0  0  0  0  0  0  0  0  0  0  0  0
  -29.7118   -2.5976   -4.6223 C   0  0  0  0  0  0  0  0  0  0  0  0
  -30.2033   -3.6241   -3.3341 S   0  0  0  0  0  0  0  0  0  0  0  0
  -28.6522   -2.8047   -6.8952 C   0  0  0  0  0  0  0  0  0  0  0  0
  -28.0848   -1.5325   -6.9789 C   0  0  0  0  0  0  0  0  0  0  0  0
  -27.5356   -1.0714   -8.1893 C   0  0  0  0  0  0  0  0  0  0  0  0
  -27.5523   -1.8413   -9.3615 C   0  0  0  0  0  0  0  0  0  0  0  0
  -28.1514   -3.1068   -9.2544 C   0  0  0  0  0  0  0  0  0  0  0  0
  -28.6960   -3.5799   -8.0538 C   0  0  0  0  0  0  0  0  0  0  0  0
  -27.0161   -1.4077  -10.5551 N   0  0  0  0  0  0  0  0  0  0  0  0
  -27.7276   -1.3124  -11.8263 C   0  0  0  0  0  0  0  0  0  0  0  0
  -26.6811   -1.7323  -12.8513 C   0  0  0  0  0  0  0  0  0  0  0  0
  -25.3892   -1.1819  -12.2713 C   0  0  0  0  0  0  0  0  0  0  0  0
  -25.5660   -1.3490  -10.7642 C   0  0  0  0  0  0  0  0  0  0  0  0
 11 12  1  0  0  0
 12  1  1  0  0  0
  1  2  1  0  0  0
  1 10  2  0  0  0
  2  3  2  0  0  0
  3  4  1  0  0  0
  3  8  1  0  0  0
  4 13  1  0  0  0
  4  5  2  0  0  0
 13 15  1  0  0  0
 13 14  1  0  0  0
 15 16  1  0  0  0
 15 22  2  0  0  0
 16 17  2  0  0  0
 17 18  1  0  0  0
 18 19  1  0  0  0
 18 20  2  0  0  0
 20 21  1  0  0  0
 20 22  1  0  0  0
  5  6  1  0  0  0
  6  7  2  0  0  0
  7  8  1  0  0  0
  8  9  2  0  0  0
  9 10  1  0  0  0
 10 23  1  0  0  0
 23 24  1  0  0  0
 24 25  1  0  0  0
 25 26  2  0  0  0
 25 29  1  0  0  0
 26 27  1  0  0  0
 27 30  1  0  0  0
 27 28  2  0  0  0
 30 31  1  0  0  0
 30 35  2  0  0  0
 31 32  2  0  0  0
 32 33  1  0  0  0
 33 36  1  0  0  0
 33 34  2  0  0  0
 36 37  1  0  0  0
 36 40  1  0  0  0
 37 38  1  0  0  0
 38 39  1  0  0  0
 39 40  1  0  0  0
 34 35  1  0  0  0
 28 29  1  0  0  0
M  END
> <minimizedAffinity>
-8.81482

$$$$
