CHEMBL1997924


 29 33  0  0  0  0  0  0  0  0999 V2000
  -27.6499   -2.4608   -8.8038 C   0  0  0  0  0  0  0  0  0  0  0  0
  -28.4151   -3.4637   -8.3724 N   0  0  0  0  0  0  0  0  0  0  0  0
  -29.0675   -3.4020   -7.1846 C   0  0  0  0  0  0  0  0  0  0  0  0
  -28.7848   -2.2985   -6.3759 C   0  0  0  0  0  0  0  0  0  0  0  0
  -29.3632   -1.8895   -4.8068 S   0  0  0  0  0  0  0  0  0  0  0  0
  -28.4672   -0.4340   -4.7775 C   0  0  0  0  0  0  0  0  0  0  0  0
  -27.7553   -0.2466   -5.9400 C   0  0  0  0  0  0  0  0  0  0  0  0
  -27.9394   -1.3155   -6.8656 C   0  0  0  0  0  0  0  0  0  0  0  0
  -27.3783   -1.3701   -8.0943 N   0  0  0  0  0  0  0  0  0  0  0  0
  -27.1162   -2.6214  -10.0821 N   0  0  0  0  0  0  0  0  0  0  0  0
  -26.1167   -2.7439   -9.9601 H   0  0  0  0  0  0  0  0  0  0  0  0
  -27.4363   -1.5332  -10.9862 C   0  0  0  0  0  0  0  0  0  0  0  0
  -24.1556   -0.9455  -13.7341 C   0  0  0  0  0  0  0  0  0  0  0  0
  -24.0408   -0.5052  -12.4163 C   0  0  0  0  0  0  0  0  0  0  0  0
  -25.1049   -0.6713  -11.5260 C   0  0  0  0  0  0  0  0  0  0  0  0
  -26.2960   -1.2809  -11.9485 C   0  0  0  0  0  0  0  0  0  0  0  0
  -26.3992   -1.7125  -13.2793 C   0  0  0  0  0  0  0  0  0  0  0  0
  -25.3354   -1.5466  -14.1663 C   0  0  0  0  0  0  0  0  0  0  0  0
  -30.0206   -4.3726   -6.8257 N   0  0  0  0  0  0  0  0  0  0  0  0
  -30.7690   -4.4573   -7.5021 H   0  0  0  0  0  0  0  0  0  0  0  0
  -29.8234   -5.4684   -6.0587 C   0  0  0  0  0  0  0  0  0  0  0  0
  -28.7502   -6.3784   -6.1809 C   0  0  0  0  0  0  0  0  0  0  0  0
  -29.0358   -7.4061   -5.3187 C   0  0  0  0  0  0  0  0  0  0  0  0
  -30.1806   -7.0397   -4.6827 N   0  0  0  0  0  0  0  0  0  0  0  0
  -30.6751   -5.8560   -5.1024 N   0  0  0  0  0  0  0  0  0  0  0  0
  -30.7007   -7.5546   -3.9811 H   0  0  0  0  0  0  0  0  0  0  0  0
  -28.2542   -8.6895   -5.1374 C   0  0  0  0  0  0  0  0  0  0  0  0
  -28.1576   -9.2922   -3.7500 C   0  0  0  0  0  0  0  0  0  0  0  0
  -26.9633   -8.6278   -4.3417 C   0  0  0  0  0  0  0  0  0  0  0  0
 13 14  1  0  0  0
 13 18  2  0  0  0
 14 15  2  0  0  0
 15 16  1  0  0  0
 16 12  1  0  0  0
 16 17  2  0  0  0
 12 10  1  0  0  0
 10  1  1  0  0  0
 10 11  1  0  0  0
  1  2  1  0  0  0
  1  9  2  0  0  0
  2  3  2  0  0  0
  3 19  1  0  0  0
  3  4  1  0  0  0
 19 21  1  0  0  0
 19 20  1  0  0  0
 21 22  1  0  0  0
 21 25  2  0  0  0
 22 23  2  0  0  0
 23 27  1  0  0  0
 23 24  1  0  0  0
 27 28  1  0  0  0
 27 29  1  0  0  0
 28 29  1  0  0  0
 24 25  1  0  0  0
 24 26  1  0  0  0
  4  5  1  0  0  0
  4  8  2  0  0  0
  5  6  1  0  0  0
  6  7  2  0  0  0
  7  8  1  0  0  0
  8  9  1  0  0  0
 17 18  1  0  0  0
M  END
> <minimizedAffinity>
-9.42560

$$$$
