CHEMBL1978973


 27 29  0  0  0  0  0  0  0  0999 V2000
  -16.7643    1.1333  -14.8239 C   0  0  0  0  0  0  0  0  0  0  0  0
  -16.5316    0.1251  -13.9434 N   0  0  0  0  0  0  0  0  0  0  0  0
  -15.3576   -0.5127  -13.9143 C   0  0  0  0  0  0  0  0  0  0  0  0
  -15.2048   -1.5496  -13.0013 C   0  0  0  0  0  0  0  0  0  0  0  0
  -14.0477   -2.3285  -12.9522 C   0  0  0  0  0  0  0  0  0  0  0  0
  -13.0228   -2.0662  -13.8452 C   0  0  0  0  0  0  0  0  0  0  0  0
  -11.4853   -3.1630  -13.8663 Br  0  0  0  0  0  0  0  0  0  0  0  0
  -13.1318   -0.9991  -14.7343 C   0  0  0  0  0  0  0  0  0  0  0  0
  -14.2968   -0.1818  -14.7648 C   0  0  0  0  0  0  0  0  0  0  0  0
  -14.4942    0.9526  -15.5955 C   0  0  0  0  0  0  0  0  0  0  0  0
  -15.7378    1.6351  -15.6439 C   0  0  0  0  0  0  0  0  0  0  0  0
  -22.2872    2.9632  -14.3255 C   0  0  0  0  0  0  0  0  0  0  0  0
  -20.8626    2.5329  -14.5013 C   0  0  0  0  0  0  0  0  0  0  0  0
  -19.7964    3.3297  -14.0829 C   0  0  0  0  0  0  0  0  0  0  0  0
  -18.4759    2.8790  -14.2250 C   0  0  0  0  0  0  0  0  0  0  0  0
  -18.1729    1.6133  -14.7663 C   0  0  0  0  0  0  0  0  0  0  0  0
  -19.2698    0.8232  -15.1439 C   0  0  0  0  0  0  0  0  0  0  0  0
  -20.5869    1.2849  -15.0561 C   0  0  0  0  0  0  0  0  0  0  0  0
  -13.3051    1.4762  -16.3145 C   0  0  0  0  0  0  0  0  0  0  0  0
  -12.9963    1.2292  -17.4642 O   0  0  0  0  0  0  0  0  0  0  0  0
  -12.5688    2.3074  -15.5654 O   0  0  0  0  0  0  0  0  0  0  0  0
  -11.8779    2.6489  -16.1735 H   0  0  0  0  0  0  0  0  0  0  0  0
  -15.9363    2.8561  -16.5206 C   0  0  0  0  0  0  0  0  0  0  0  0
  -15.5728    4.1682  -15.8407 C   0  0  0  0  0  0  0  0  0  0  0  0
  -14.4616    4.4767  -15.4293 O   0  0  0  0  0  0  0  0  0  0  0  0
  -16.6187    5.0291  -15.7831 O   0  0  0  0  0  0  0  0  0  0  0  0
  -17.4449    4.6913  -16.1785 H   0  0  0  0  0  0  0  0  0  0  0  0
 12 13  1  0  0  0
 13 14  1  0  0  0
 13 18  2  0  0  0
 14 15  2  0  0  0
 15 16  1  0  0  0
 16  1  1  0  0  0
 16 17  2  0  0  0
  1  2  1  0  0  0
  1 11  2  0  0  0
  2  3  2  0  0  0
  3  4  1  0  0  0
  3  9  1  0  0  0
  4  5  2  0  0  0
  5  6  1  0  0  0
  6  7  1  0  0  0
  6  8  2  0  0  0
  8  9  1  0  0  0
  9 10  2  0  0  0
 10 19  1  0  0  0
 10 11  1  0  0  0
 19 20  2  0  0  0
 19 21  1  0  0  0
 21 22  1  0  0  0
 11 23  1  0  0  0
 23 24  1  0  0  0
 24 25  2  0  0  0
 24 26  1  0  0  0
 26 27  1  0  0  0
 17 18  1  0  0  0
M  END
> <minimizedAffinity>
-7.66669

$$$$
