CHEMBL3968343


 35 38  0  0  0  0  0  0  0  0999 V2000
  -27.9725   -2.8401   -8.2240 C   0  0  0  0  0  0  0  0  0  0  0  0
  -27.7789   -4.1465   -8.7012 C   0  0  0  0  0  0  0  0  0  0  0  0
  -28.2728   -5.2760   -8.0469 C   0  0  0  0  0  0  0  0  0  0  0  0
  -28.8785   -5.1430   -6.8037 C   0  0  0  0  0  0  0  0  0  0  0  0
  -29.1763   -3.8301   -6.3614 C   0  0  0  0  0  0  0  0  0  0  0  0
  -28.7157   -2.6885   -7.0547 C   0  0  0  0  0  0  0  0  0  0  0  0
  -28.7622   -6.2961   -5.8083 C   0  0  0  0  0  0  0  0  0  0  0  0
  -28.4522   -7.5891   -6.2689 C   0  0  0  0  0  0  0  0  0  0  0  0
  -29.7432   -8.0339   -6.7287 C   0  0  0  0  0  0  0  0  0  0  0  0
  -30.1880   -8.8271   -7.7951 C   0  0  0  0  0  0  0  0  0  0  0  0
  -31.5642   -8.9132   -8.0358 C   0  0  0  0  0  0  0  0  0  0  0  0
  -32.4888   -8.2878   -7.1905 C   0  0  0  0  0  0  0  0  0  0  0  0
  -32.0719   -7.5409   -6.0932 C   0  0  0  0  0  0  0  0  0  0  0  0
  -30.6946   -7.3800   -5.9376 C   0  0  0  0  0  0  0  0  0  0  0  0
  -29.9266   -6.6363   -5.0511 N   0  0  0  0  0  0  0  0  0  0  0  0
  -30.3106   -6.2326   -3.7615 C   0  0  0  0  0  0  0  0  0  0  0  0
  -29.2691   -6.2414   -2.8797 N   0  0  0  0  0  0  0  0  0  0  0  0
  -31.4825   -6.0731   -3.4539 O   0  0  0  0  0  0  0  0  0  0  0  0
  -28.4349   -6.7706   -3.1012 H   0  0  0  0  0  0  0  0  0  0  0  0
  -29.5577   -6.2635   -1.9073 H   0  0  0  0  0  0  0  0  0  0  0  0
  -26.1232   -0.7352  -10.5952 N   0  0  0  0  0  0  0  0  0  0  0  0
  -26.9138   -1.7943  -10.1754 C   0  0  0  0  0  0  0  0  0  0  0  0
  -27.1659   -2.7625  -10.8795 O   0  0  0  0  0  0  0  0  0  0  0  0
  -27.3887   -1.7093   -8.8773 N   0  0  0  0  0  0  0  0  0  0  0  0
  -25.8239   -0.0614   -9.9071 H   0  0  0  0  0  0  0  0  0  0  0  0
  -27.5572   -0.7939   -8.4875 H   0  0  0  0  0  0  0  0  0  0  0  0
  -23.5857    0.0313  -13.2640 C   0  0  0  0  0  0  0  0  0  0  0  0
  -24.0195   -0.8163  -14.2912 C   0  0  0  0  0  0  0  0  0  0  0  0
  -25.1613   -1.5807  -14.1343 C   0  0  0  0  0  0  0  0  0  0  0  0
  -25.8734   -1.5110  -12.9422 C   0  0  0  0  0  0  0  0  0  0  0  0
  -25.4551   -0.7186  -11.8639 C   0  0  0  0  0  0  0  0  0  0  0  0
  -24.3161    0.0780  -12.0472 C   0  0  0  0  0  0  0  0  0  0  0  0
  -21.4444    0.2130  -14.5819 C   0  0  0  0  0  0  0  0  0  0  0  0
  -22.3252    0.8410  -13.5047 C   0  0  0  0  0  0  0  0  0  0  0  0
  -22.6463    2.3019  -13.8117 C   0  0  0  0  0  0  0  0  0  0  0  0
 33 34  1  0  0  0
 34 35  1  0  0  0
 34 27  1  0  0  0
 27 28  1  0  0  0
 27 32  2  0  0  0
 28 29  2  0  0  0
 29 30  1  0  0  0
 30 31  2  0  0  0
 31 21  1  0  0  0
 31 32  1  0  0  0
 21 22  1  0  0  0
 21 25  1  0  0  0
 22 23  2  0  0  0
 22 24  1  0  0  0
 24  1  1  0  0  0
 24 26  1  0  0  0
  1  2  1  0  0  0
  1  6  2  0  0  0
  2  3  2  0  0  0
  3  4  1  0  0  0
  4  7  1  0  0  0
  4  5  2  0  0  0
  7  8  2  0  0  0
  7 15  1  0  0  0
  8  9  1  0  0  0
  9 10  1  0  0  0
  9 14  2  0  0  0
 10 11  2  0  0  0
 11 12  1  0  0  0
 12 13  2  0  0  0
 13 14  1  0  0  0
 14 15  1  0  0  0
 15 16  1  0  0  0
 16 17  1  0  0  0
 16 18  2  0  0  0
 17 19  1  0  0  0
 17 20  1  0  0  0
  5  6  1  0  0  0
M  END
> <minimizedAffinity>
-10.52165

$$$$
