CHEMBL596808


 28 31  0  0  0  0  0  0  0  0999 V2000
  -21.5621  -10.6104   -7.2403 O   0  0  0  0  0  0  0  0  0  0  0  0
  -22.3573  -10.9737   -6.3717 C   0  0  0  0  0  0  0  0  0  0  0  0
  -23.5581  -11.8250   -6.7092 C   0  0  0  0  0  0  0  0  0  0  0  0
  -24.8125  -11.1048   -6.3721 C   0  0  0  0  0  0  0  0  0  0  0  0
  -25.6842  -10.6369   -7.3288 C   0  0  0  0  0  0  0  0  0  0  0  0
  -26.7916   -9.9301   -7.0481 N   0  0  0  0  0  0  0  0  0  0  0  0
  -27.0554   -9.7183   -5.7537 C   0  0  0  0  0  0  0  0  0  0  0  0
  -26.2697  -10.1561   -4.7520 N   0  0  0  0  0  0  0  0  0  0  0  0
  -25.1372  -10.8186   -5.0622 C   0  0  0  0  0  0  0  0  0  0  0  0
  -24.2720  -11.2090   -3.9262 C   0  0  0  0  0  0  0  0  0  0  0  0
  -24.8625  -11.7083   -2.7476 C   0  0  0  0  0  0  0  0  0  0  0  0
  -24.0937  -12.0779   -1.6399 C   0  0  0  0  0  0  0  0  0  0  0  0
  -22.7158  -11.8992   -1.6607 C   0  0  0  0  0  0  0  0  0  0  0  0
  -22.1069  -11.3683   -2.7935 C   0  0  0  0  0  0  0  0  0  0  0  0
  -22.8624  -11.0770   -3.9399 C   0  0  0  0  0  0  0  0  0  0  0  0
  -22.1106  -10.6785   -5.0610 N   0  0  0  0  0  0  0  0  0  0  0  0
  -21.1822  -10.3013   -4.9120 H   0  0  0  0  0  0  0  0  0  0  0  0
  -28.1935   -8.9663   -5.4693 N   0  0  0  0  0  0  0  0  0  0  0  0
  -28.8356   -9.4726   -4.8795 H   0  0  0  0  0  0  0  0  0  0  0  0
  -28.4059   -7.5981   -5.6526 C   0  0  0  0  0  0  0  0  0  0  0  0
  -27.9534   -6.6849   -4.6885 C   0  0  0  0  0  0  0  0  0  0  0  0
  -28.2725   -5.3255   -4.7874 C   0  0  0  0  0  0  0  0  0  0  0  0
  -29.0416   -4.8712   -5.8657 C   0  0  0  0  0  0  0  0  0  0  0  0
  -29.4686   -5.7597   -6.8539 C   0  0  0  0  0  0  0  0  0  0  0  0
  -29.1559   -7.1110   -6.7354 C   0  0  0  0  0  0  0  0  0  0  0  0
  -29.4300   -3.4601   -5.9537 N   0  0  0  0  0  0  0  0  0  0  0  0
  -28.5462   -2.6080   -5.7753 O   0  0  0  0  0  0  0  0  0  0  0  0
  -30.6163   -3.2003   -6.1962 O   0  0  0  0  0  0  0  0  0  0  0  0
  1  2  2  0  0  0
  2  3  1  0  0  0
  2 16  1  0  0  0
  3  4  1  0  0  0
  4  5  1  0  0  0
  4  9  2  0  0  0
  5  6  2  0  0  0
  6  7  1  0  0  0
  7 18  1  0  0  0
  7  8  2  0  0  0
 18 20  1  0  0  0
 18 19  1  0  0  0
 20 21  1  0  0  0
 20 25  2  0  0  0
 21 22  2  0  0  0
 22 23  1  0  0  0
 23 26  1  0  0  0
 23 24  2  0  0  0
 26 27  2  0  0  0
 26 28  1  0  0  0
 24 25  1  0  0  0
  8  9  1  0  0  0
  9 10  1  0  0  0
 10 11  1  0  0  0
 10 15  2  0  0  0
 11 12  2  0  0  0
 12 13  1  0  0  0
 13 14  2  0  0  0
 14 15  1  0  0  0
 15 16  1  0  0  0
 16 17  1  0  0  0
M  CHG 1  26   1
M  CHG 1  28  -1
M  END
> <minimizedAffinity>
-7.76441

$$$$
