CHEMBL225193


 34 38  0  0  0  0  0  0  0  0999 V2000
  -29.7460  -10.1039   -7.9939 C   0  0  0  0  0  0  0  0  0  0  0  0
  -29.0145  -10.4554   -9.0900 N   0  0  0  0  0  0  0  0  0  0  0  0
  -27.8246  -10.7762   -8.4957 N   0  0  0  0  0  0  0  0  0  0  0  0
  -27.9909  -11.0362   -7.1646 C   0  0  0  0  0  0  0  0  0  0  0  0
  -29.3902  -11.1615   -7.0655 C   0  0  0  0  0  0  0  0  0  0  0  0
  -29.7056  -11.5980   -5.6713 C   0  0  0  0  0  0  0  0  0  0  0  0
  -28.6797  -10.6848   -5.0185 C   0  0  0  0  0  0  0  0  0  0  0  0
  -29.1065   -9.8382   -4.0135 C   0  0  0  0  0  0  0  0  0  0  0  0
  -28.5702   -8.5586   -3.9874 C   0  0  0  0  0  0  0  0  0  0  0  0
  -27.4242   -8.2698   -4.7777 C   0  0  0  0  0  0  0  0  0  0  0  0
  -26.9071   -9.1989   -5.7234 C   0  0  0  0  0  0  0  0  0  0  0  0
  -27.5916  -10.3909   -5.8964 C   0  0  0  0  0  0  0  0  0  0  0  0
  -27.0580  -11.0524   -9.0960 H   0  0  0  0  0  0  0  0  0  0  0  0
  -29.2750   -6.2451   -7.6961 C   0  0  0  0  0  0  0  0  0  0  0  0
  -28.7667   -7.5429   -7.9023 C   0  0  0  0  0  0  0  0  0  0  0  0
  -29.7728   -8.5745   -7.7428 C   0  0  0  0  0  0  0  0  0  0  0  0
  -30.9627   -7.9791   -7.3439 C   0  0  0  0  0  0  0  0  0  0  0  0
  -30.9100   -6.2928   -7.1958 S   0  0  0  0  0  0  0  0  0  0  0  0
  -28.2953   -3.8016   -8.0825 C   0  0  0  0  0  0  0  0  0  0  0  0
  -28.6690   -4.9535   -7.9706 C   0  0  0  0  0  0  0  0  0  0  0  0
  -27.9176   -2.3900   -8.2964 C   0  0  0  0  0  0  0  0  0  0  0  0
  -27.3272   -1.7862   -7.1284 O   0  0  0  0  0  0  0  0  0  0  0  0
  -28.0569   -0.6028   -6.7519 C   0  0  0  0  0  0  0  0  0  0  0  0
  -27.6955   -0.1068   -5.3446 C   0  0  0  0  0  0  0  0  0  0  0  0
  -29.8387    0.8390   -5.7843 C   0  0  0  0  0  0  0  0  0  0  0  0
  -28.7982    0.6474   -4.8237 O   0  0  0  0  0  0  0  0  0  0  0  0
  -29.4535   -7.4222   -3.4722 C   0  0  0  0  0  0  0  0  0  0  0  0
  -29.3412   -6.1290   -4.1743 N   0  0  0  0  0  0  0  0  0  0  0  0
  -30.4876   -5.2829   -3.8597 C   0  0  0  0  0  0  0  0  0  0  0  0
  -30.3583   -3.9133   -4.5316 C   0  0  0  0  0  0  0  0  0  0  0  0
  -29.1442   -3.1549   -4.1453 N   0  0  0  0  0  0  0  0  0  0  0  0
  -29.2156   -2.7444   -2.7355 C   0  0  0  0  0  0  0  0  0  0  0  0
  -27.9662   -3.9894   -4.3997 C   0  0  0  0  0  0  0  0  0  0  0  0
  -28.0748   -5.4343   -3.8521 C   0  0  0  0  0  0  0  0  0  0  0  0
 25 26  1  0  0  0
 26 24  1  0  0  0
 24 23  1  0  0  0
 23 22  1  0  0  0
 22 21  1  0  0  0
 21 19  1  0  0  0
 19 20  3  0  0  0
 20 14  1  0  0  0
 14 15  2  0  0  0
 14 18  1  0  0  0
 15 16  1  0  0  0
 16  1  1  0  0  0
 16 17  2  0  0  0
  1  2  2  0  0  0
  1  5  1  0  0  0
  2  3  1  0  0  0
  3  4  1  0  0  0
  3 13  1  0  0  0
  4  5  2  0  0  0
  4 12  1  0  0  0
  5  6  1  0  0  0
  6  7  1  0  0  0
  7  8  1  0  0  0
  7 12  2  0  0  0
  8  9  2  0  0  0
  9 27  1  0  0  0
  9 10  1  0  0  0
 27 28  1  0  0  0
 28 29  1  0  0  0
 28 34  1  0  0  0
 29 30  1  0  0  0
 30 31  1  0  0  0
 31 32  1  0  0  0
 31 33  1  0  0  0
 33 34  1  0  0  0
 10 11  2  0  0  0
 11 12  1  0  0  0
 17 18  1  0  0  0
M  END
> <minimizedAffinity>
-7.00204

$$$$
