CHEMBL447107


 44 49  0  0  0  0  0  0  0  0999 V2000
  -27.8088   -7.7555   -8.8098 C   0  0  0  0  0  0  0  0  0  0  0  0
  -28.5331   -8.5462   -7.9376 C   0  0  0  0  0  0  0  0  0  0  0  0
  -28.4171   -9.9101   -8.0955 C   0  0  0  0  0  0  0  0  0  0  0  0
  -27.6723  -10.4496   -9.0867 N   0  0  0  0  0  0  0  0  0  0  0  0
  -27.0532   -9.5987   -9.9083 C   0  0  0  0  0  0  0  0  0  0  0  0
  -27.1011   -8.2715   -9.8251 N   0  0  0  0  0  0  0  0  0  0  0  0
  -29.0296  -10.8087   -7.1688 N   0  0  0  0  0  0  0  0  0  0  0  0
  -28.4482  -11.8384   -6.4171 C   0  0  0  0  0  0  0  0  0  0  0  0
  -29.3539  -12.4646   -5.6943 N   0  0  0  0  0  0  0  0  0  0  0  0
  -30.5558  -11.8963   -6.0067 C   0  0  0  0  0  0  0  0  0  0  0  0
  -31.8420  -12.2449   -5.5631 C   0  0  0  0  0  0  0  0  0  0  0  0
  -32.9491  -11.5677   -6.0891 C   0  0  0  0  0  0  0  0  0  0  0  0
  -32.7806  -10.5581   -7.0334 C   0  0  0  0  0  0  0  0  0  0  0  0
  -31.5058  -10.1850   -7.4663 C   0  0  0  0  0  0  0  0  0  0  0  0
  -30.4004  -10.8656   -6.9245 C   0  0  0  0  0  0  0  0  0  0  0  0
  -27.1117  -12.1089   -6.4520 N   0  0  0  0  0  0  0  0  0  0  0  0
  -26.7730  -12.5319   -7.3164 H   0  0  0  0  0  0  0  0  0  0  0  0
  -26.1080  -11.2556   -5.9031 C   0  0  0  0  0  0  0  0  0  0  0  0
  -26.1927  -10.6923   -4.6093 C   0  0  0  0  0  0  0  0  0  0  0  0
  -27.2770  -11.0168   -3.6152 C   0  0  0  0  0  0  0  0  0  0  0  0
  -25.1943   -9.7970   -4.1731 C   0  0  0  0  0  0  0  0  0  0  0  0
  -24.0788   -9.5162   -4.9578 C   0  0  0  0  0  0  0  0  0  0  0  0
  -23.9389  -10.1315   -6.1953 C   0  0  0  0  0  0  0  0  0  0  0  0
  -24.9421  -10.9868   -6.6616 C   0  0  0  0  0  0  0  0  0  0  0  0
  -24.7066  -11.7390   -8.2068 Cl  0  0  0  0  0  0  0  0  0  0  0  0
  -27.9170   -6.3573   -8.6606 N   0  0  0  0  0  0  0  0  0  0  0  0
  -26.9828   -5.9755   -8.7566 H   0  0  0  0  0  0  0  0  0  0  0  0
  -31.2150   -6.4618   -5.1350 C   0  0  0  0  0  0  0  0  0  0  0  0
  -30.1898   -5.7224   -5.9321 C   0  0  0  0  0  0  0  0  0  0  0  0
  -29.5365   -6.4024   -6.8911 N   0  0  0  0  0  0  0  0  0  0  0  0
  -28.6058   -5.7376   -7.5945 C   0  0  0  0  0  0  0  0  0  0  0  0
  -28.3712   -4.4062   -7.3711 C   0  0  0  0  0  0  0  0  0  0  0  0
  -29.0425   -3.7871   -6.3367 C   0  0  0  0  0  0  0  0  0  0  0  0
  -29.9755   -4.4270   -5.6231 N   0  0  0  0  0  0  0  0  0  0  0  0
  -28.7021   -2.4622   -6.0678 N   0  0  0  0  0  0  0  0  0  0  0  0
  -27.9614   -1.7298   -7.0991 C   0  0  0  0  0  0  0  0  0  0  0  0
  -27.4202   -0.4217   -6.4503 C   0  0  0  0  0  0  0  0  0  0  0  0
  -28.4407    0.4415   -5.7758 N   0  0  0  0  0  0  0  0  0  0  0  0
  -29.2516   -0.4115   -4.8695 C   0  0  0  0  0  0  0  0  0  0  0  0
  -29.8264   -1.6847   -5.5218 C   0  0  0  0  0  0  0  0  0  0  0  0
  -29.2556    1.1480   -6.7882 C   0  0  0  0  0  0  0  0  0  0  0  0
  -30.6356    1.5858   -6.2678 C   0  0  0  0  0  0  0  0  0  0  0  0
  -31.3067    2.3881   -7.2344 O   0  0  0  0  0  0  0  0  0  0  0  0
  -30.6106    2.9405   -7.6424 H   0  0  0  0  0  0  0  0  0  0  0  0
 28 29  1  0  0  0
 29 30  1  0  0  0
 29 34  2  0  0  0
 30 31  2  0  0  0
 31 26  1  0  0  0
 31 32  1  0  0  0
 26  1  1  0  0  0
 26 27  1  0  0  0
  1  2  1  0  0  0
  1  6  2  0  0  0
  2  3  2  0  0  0
  3  7  1  0  0  0
  3  4  1  0  0  0
  7  8  1  0  0  0
  7 15  1  0  0  0
  8 16  1  0  0  0
  8  9  2  0  0  0
 16 18  1  0  0  0
 16 17  1  0  0  0
 18 19  1  0  0  0
 18 24  2  0  0  0
 19 20  1  0  0  0
 19 21  2  0  0  0
 21 22  1  0  0  0
 22 23  2  0  0  0
 23 24  1  0  0  0
 24 25  1  0  0  0
  9 10  1  0  0  0
 10 11  1  0  0  0
 10 15  2  0  0  0
 11 12  2  0  0  0
 12 13  1  0  0  0
 13 14  2  0  0  0
 14 15  1  0  0  0
  4  5  2  0  0  0
  5  6  1  0  0  0
 32 33  2  0  0  0
 33 35  1  0  0  0
 33 34  1  0  0  0
 35 36  1  0  0  0
 35 40  1  0  0  0
 36 37  1  0  0  0
 37 38  1  0  0  0
 38 41  1  0  0  0
 38 39  1  0  0  0
 41 42  1  0  0  0
 42 43  1  0  0  0
 43 44  1  0  0  0
 39 40  1  0  0  0
M  END
> <minimizedAffinity>
-8.71617

$$$$
