CHEMBL2113184


 42 46  0  0  0  0  0  0  0  0999 V2000
  -17.1578    1.6687  -14.9652 C   0  0  0  0  0  0  0  0  0  0  0  0
  -16.7375    0.6671  -14.0960 C   0  0  0  0  0  0  0  0  0  0  0  0
  -15.3966    0.2854  -13.9885 C   0  0  0  0  0  0  0  0  0  0  0  0
  -14.9821   -0.8110  -13.2219 C   0  0  0  0  0  0  0  0  0  0  0  0
  -13.6830   -1.0728  -13.0123 N   0  0  0  0  0  0  0  0  0  0  0  0
  -12.8137   -0.2563  -13.6240 C   0  0  0  0  0  0  0  0  0  0  0  0
  -13.1123    0.7677  -14.4392 N   0  0  0  0  0  0  0  0  0  0  0  0
  -14.4105    1.0392  -14.6227 C   0  0  0  0  0  0  0  0  0  0  0  0
  -14.8198    2.0995  -15.4368 C   0  0  0  0  0  0  0  0  0  0  0  0
  -16.1762    2.4250  -15.6443 C   0  0  0  0  0  0  0  0  0  0  0  0
  -19.4112    0.8353  -15.1264 C   0  0  0  0  0  0  0  0  0  0  0  0
  -18.4906    1.9288  -15.1270 O   0  0  0  0  0  0  0  0  0  0  0  0
  -15.9644   -1.7282  -12.7161 N   0  0  0  0  0  0  0  0  0  0  0  0
  -16.8415   -1.5089  -13.1989 H   0  0  0  0  0  0  0  0  0  0  0  0
  -15.6969   -3.0918  -12.7898 C   0  0  0  0  0  0  0  0  0  0  0  0
  -15.1742   -3.6540  -13.8898 C   0  0  0  0  0  0  0  0  0  0  0  0
  -14.9901   -5.1017  -14.0390 C   0  0  0  0  0  0  0  0  0  0  0  0
  -14.5850   -5.5192  -15.1075 O   0  0  0  0  0  0  0  0  0  0  0  0
  -15.3277   -5.9806  -12.8702 C   0  0  0  0  0  0  0  0  0  0  0  0
  -15.7998   -5.4124  -11.7514 C   0  0  0  0  0  0  0  0  0  0  0  0
  -15.9802   -3.9513  -11.6038 C   0  0  0  0  0  0  0  0  0  0  0  0
  -16.3219   -3.4566  -10.5351 O   0  0  0  0  0  0  0  0  0  0  0  0
  -15.1770   -7.3671  -12.9069 O   0  0  0  0  0  0  0  0  0  0  0  0
  -14.0641   -7.9040  -12.1711 C   0  0  0  0  0  0  0  0  0  0  0  0
  -12.7584   -7.2845  -12.6813 C   0  0  0  0  0  0  0  0  0  0  0  0
  -11.7640   -7.0220  -11.6284 N   0  0  0  0  0  0  0  0  0  0  0  0
  -11.0929   -8.1617  -11.0019 C   0  0  0  0  0  0  0  0  0  0  0  0
  -11.8357   -5.8689  -10.8453 C   0  0  0  0  0  0  0  0  0  0  0  0
  -11.5082   -5.8466   -9.4833 C   0  0  0  0  0  0  0  0  0  0  0  0
  -11.5699   -4.6654   -8.7334 C   0  0  0  0  0  0  0  0  0  0  0  0
  -11.9888   -3.4801   -9.3270 C   0  0  0  0  0  0  0  0  0  0  0  0
  -12.3416   -3.4758  -10.6702 C   0  0  0  0  0  0  0  0  0  0  0  0
  -12.2582   -4.6553  -11.4165 C   0  0  0  0  0  0  0  0  0  0  0  0
  -16.3535    3.4901  -16.5091 O   0  0  0  0  0  0  0  0  0  0  0  0
  -15.1643    4.1291  -16.9677 C   0  0  0  0  0  0  0  0  0  0  0  0
  -14.8466    3.8936  -18.4599 C   0  0  0  0  0  0  0  0  0  0  0  0
  -13.3790    3.5460  -18.7347 C   0  0  0  0  0  0  0  0  0  0  0  0
  -12.4508    4.7173  -18.4107 C   0  0  0  0  0  0  0  0  0  0  0  0
  -12.8160    5.9190  -19.1749 N   0  0  0  0  0  0  0  0  0  0  0  0
  -11.9145    7.0208  -18.8309 C   0  0  0  0  0  0  0  0  0  0  0  0
  -14.2139    6.3189  -18.9654 C   0  0  0  0  0  0  0  0  0  0  0  0
  -15.1965    5.1721  -19.2474 C   0  0  0  0  0  0  0  0  0  0  0  0
 11 12  1  0  0  0
 12  1  1  0  0  0
  1  2  1  0  0  0
  1 10  2  0  0  0
  2  3  2  0  0  0
  3  4  1  0  0  0
  3  8  1  0  0  0
  4 13  1  0  0  0
  4  5  2  0  0  0
 13 15  1  0  0  0
 13 14  1  0  0  0
 15 16  2  0  0  0
 15 21  1  0  0  0
 16 17  1  0  0  0
 17 18  2  0  0  0
 17 19  1  0  0  0
 19 23  1  0  0  0
 19 20  2  0  0  0
 23 24  1  0  0  0
 24 25  1  0  0  0
 25 26  1  0  0  0
 26 27  1  0  0  0
 26 28  1  0  0  0
 28 29  1  0  0  0
 28 33  2  0  0  0
 29 30  2  0  0  0
 30 31  1  0  0  0
 31 32  2  0  0  0
 32 33  1  0  0  0
 20 21  1  0  0  0
 21 22  2  0  0  0
  5  6  1  0  0  0
  6  7  2  0  0  0
  7  8  1  0  0  0
  8  9  2  0  0  0
  9 10  1  0  0  0
 10 34  1  0  0  0
 34 35  1  0  0  0
 35 36  1  0  0  0
 36 37  1  0  0  0
 36 42  1  0  0  0
 37 38  1  0  0  0
 38 39  1  0  0  0
 39 40  1  0  0  0
 39 41  1  0  0  0
 41 42  1  0  0  0
M  END
> <minimizedAffinity>
-7.45798

$$$$
