CHEMBL3935825


 42 45  0  0  0  0  0  0  0  0999 V2000
  -26.1869  -11.5271   -4.2084 N   0  0  0  0  0  0  0  0  0  0  0  0
  -26.5520  -11.1093   -5.5933 C   0  0  0  0  0  0  0  0  0  0  0  0
  -27.7696  -11.6584   -5.8883 C   0  0  0  0  0  0  0  0  0  0  0  0
  -28.2224  -11.7881   -7.1131 C   0  0  0  0  0  0  0  0  0  0  0  0
  -27.5613  -11.3062   -8.1678 C   0  0  0  0  0  0  0  0  0  0  0  0
  -28.0589  -11.7638   -9.2869 N   0  0  0  0  0  0  0  0  0  0  0  0
  -27.6799  -11.3829  -10.4583 C   0  0  0  0  0  0  0  0  0  0  0  0
  -26.8566  -10.2819  -10.6304 C   0  0  0  0  0  0  0  0  0  0  0  0
  -26.1144   -9.8990   -9.4420 N   0  0  0  0  0  0  0  0  0  0  0  0
  -26.4435  -10.4610   -8.1347 C   0  0  0  0  0  0  0  0  0  0  0  0
  -25.8423  -10.3847   -6.7304 C   0  0  0  0  0  0  0  0  0  0  0  0
  -27.1708   -9.8072  -12.1490 C   0  0  0  0  0  0  0  0  0  0  0  0
  -28.3339  -10.4206  -12.7106 C   0  0  0  0  0  0  0  0  0  0  0  0
  -28.5195  -10.1262  -13.9775 N   0  0  0  0  0  0  0  0  0  0  0  0
  -27.5809   -9.2933  -14.3482 N   0  0  0  0  0  0  0  0  0  0  0  0
  -27.5900   -8.8822  -15.7648 C   0  0  0  0  0  0  0  0  0  0  0  0
  -26.7188   -9.0039  -13.2807 C   0  0  0  0  0  0  0  0  0  0  0  0
  -22.4991  -12.3332   -4.0848 C   0  0  0  0  0  0  0  0  0  0  0  0
  -22.3117  -12.4582   -2.6868 C   0  0  0  0  0  0  0  0  0  0  0  0
  -23.3986  -12.2939   -1.8015 C   0  0  0  0  0  0  0  0  0  0  0  0
  -24.6608  -12.0015   -2.3356 C   0  0  0  0  0  0  0  0  0  0  0  0
  -24.8875  -11.9224   -3.7270 C   0  0  0  0  0  0  0  0  0  0  0  0
  -23.7990  -12.0995   -4.5870 C   0  0  0  0  0  0  0  0  0  0  0  0
  -21.4759  -12.0790   -6.3492 C   0  0  0  0  0  0  0  0  0  0  0  0
  -21.4846  -12.4051   -4.9992 O   0  0  0  0  0  0  0  0  0  0  0  0
  -23.2101  -12.4146   -0.4503 O   0  0  0  0  0  0  0  0  0  0  0  0
  -22.1677  -11.8492    0.2571 C   0  0  0  0  0  0  0  0  0  0  0  0
  -27.2604  -11.3595   -3.1384 C   0  0  0  0  0  0  0  0  0  0  0  0
  -28.4370  -10.3052   -3.3631 C   0  0  0  0  0  0  0  0  0  0  0  0
  -28.1710   -8.7680   -3.2702 C   0  0  0  0  0  0  0  0  0  0  0  0
  -29.2680   -7.9813   -3.8642 N   0  0  0  0  0  0  0  0  0  0  0  0
  -29.2476   -7.5417   -5.1657 C   0  0  0  0  0  0  0  0  0  0  0  0
  -28.2851   -7.8066   -5.8726 O   0  0  0  0  0  0  0  0  0  0  0  0
  -30.0905   -7.7529   -3.2841 H   0  0  0  0  0  0  0  0  0  0  0  0
  -30.4103   -6.7142   -5.7793 C   0  0  0  0  0  0  0  0  0  0  0  0
  -30.5565   -7.0374   -7.2859 C   0  0  0  0  0  0  0  0  0  0  0  0
  -31.6231   -7.0659   -5.1427 O   0  0  0  0  0  0  0  0  0  0  0  0
  -31.8193   -8.0213   -5.3320 H   0  0  0  0  0  0  0  0  0  0  0  0
  -30.2116   -5.1687   -5.5731 C   0  0  0  0  0  0  0  0  0  0  0  0
  -31.2167   -4.6177   -4.8004 F   0  0  0  0  0  0  0  0  0  0  0  0
  -29.0000   -4.8684   -4.9646 F   0  0  0  0  0  0  0  0  0  0  0  0
  -30.2208   -4.5051   -6.7940 F   0  0  0  0  0  0  0  0  0  0  0  0
 24 25  1  0  0  0
 25 18  1  0  0  0
 18 19  1  0  0  0
 18 23  2  0  0  0
 19 20  2  0  0  0
 20 26  1  0  0  0
 20 21  1  0  0  0
 26 27  1  0  0  0
 21 22  2  0  0  0
 22  1  1  0  0  0
 22 23  1  0  0  0
  1 28  1  0  0  0
  1  2  1  0  0  0
 28 29  1  0  0  0
 29 30  1  0  0  0
 30 31  1  0  0  0
 31 32  1  0  0  0
 31 34  1  0  0  0
 32 33  2  0  0  0
 32 35  1  0  0  0
 35 36  1  0  0  0
 35 37  1  0  0  0
 35 39  1  0  0  0
 37 38  1  0  0  0
 39 40  1  0  0  0
 39 41  1  0  0  0
 39 42  1  0  0  0
  2  3  1  0  0  0
  2 11  2  0  0  0
  3  4  2  0  0  0
  4  5  1  0  0  0
  5  6  1  0  0  0
  5 10  2  0  0  0
  6  7  2  0  0  0
  7  8  1  0  0  0
  8 12  1  0  0  0
  8  9  2  0  0  0
 12 13  1  0  0  0
 12 17  2  0  0  0
 13 14  2  0  0  0
 14 15  1  0  0  0
 15 16  1  0  0  0
 15 17  1  0  0  0
  9 10  1  0  0  0
 10 11  1  0  0  0
M  END
> <minimizedAffinity>
-5.21679

$$$$
