CHEMBL3656118


 40 43  0  0  0  0  0  0  0  0999 V2000
  -24.8344   -1.3038  -11.5538 C   0  0  0  0  0  0  0  0  0  0  0  0
  -24.6185   -0.2564  -12.4378 C   0  0  0  0  0  0  0  0  0  0  0  0
  -23.3215    0.0236  -12.8573 C   0  0  0  0  0  0  0  0  0  0  0  0
  -22.2969   -0.8309  -12.4730 C   0  0  0  0  0  0  0  0  0  0  0  0
  -22.6095   -1.8846  -11.6236 C   0  0  0  0  0  0  0  0  0  0  0  0
  -23.8498   -2.1321  -11.1352 N   0  0  0  0  0  0  0  0  0  0  0  0
  -27.9534   -2.0733   -9.6601 C   0  0  0  0  0  0  0  0  0  0  0  0
  -28.4093   -1.6801  -10.9097 C   0  0  0  0  0  0  0  0  0  0  0  0
  -27.3250   -1.3582  -11.6909 N   0  0  0  0  0  0  0  0  0  0  0  0
  -26.1584   -1.5403  -10.9863 C   0  0  0  0  0  0  0  0  0  0  0  0
  -26.5320   -1.9855   -9.7303 C   0  0  0  0  0  0  0  0  0  0  0  0
  -27.3502   -1.0335  -12.6511 H   0  0  0  0  0  0  0  0  0  0  0  0
  -28.1169   -2.1769   -7.2815 N   0  0  0  0  0  0  0  0  0  0  0  0
  -28.7043   -2.4881   -8.4793 C   0  0  0  0  0  0  0  0  0  0  0  0
  -29.7844   -3.0723   -8.5679 O   0  0  0  0  0  0  0  0  0  0  0  0
  -27.2686   -1.6414   -7.2295 H   0  0  0  0  0  0  0  0  0  0  0  0
  -29.5060   -1.3024   -4.9631 C   0  0  0  0  0  0  0  0  0  0  0  0
  -28.8203   -2.5788   -5.8802 S   0  0  0  0  0  0  0  0  0  0  0  0
  -27.8914   -3.6301   -4.8564 C   0  0  0  0  0  0  0  0  0  0  0  0
  -29.9721   -3.3987   -6.1678 O   0  0  0  0  0  0  0  0  0  0  0  0
  -22.9936    1.0976  -13.6664 O   0  0  0  0  0  0  0  0  0  0  0  0
  -21.7227    1.1597  -14.2061 C   0  0  0  0  0  0  0  0  0  0  0  0
  -21.3083    0.3579  -15.2649 C   0  0  0  0  0  0  0  0  0  0  0  0
  -19.9782    0.3728  -15.6829 C   0  0  0  0  0  0  0  0  0  0  0  0
  -19.0444    1.2447  -15.1168 C   0  0  0  0  0  0  0  0  0  0  0  0
  -19.4918    2.1318  -14.1299 C   0  0  0  0  0  0  0  0  0  0  0  0
  -20.8243    2.0865  -13.6729 C   0  0  0  0  0  0  0  0  0  0  0  0
  -17.6747    1.2435  -15.4883 N   0  0  0  0  0  0  0  0  0  0  0  0
  -16.9832    2.3221  -16.0250 C   0  0  0  0  0  0  0  0  0  0  0  0
  -17.4366    3.4533  -16.1617 O   0  0  0  0  0  0  0  0  0  0  0  0
  -15.7037    1.9777  -16.4481 N   0  0  0  0  0  0  0  0  0  0  0  0
  -17.1425    0.4055  -15.2975 H   0  0  0  0  0  0  0  0  0  0  0  0
  -15.6265    1.0465  -16.8287 H   0  0  0  0  0  0  0  0  0  0  0  0
  -14.8711    2.9623  -17.0434 C   0  0  0  0  0  0  0  0  0  0  0  0
  -14.3767    2.7413  -18.3292 C   0  0  0  0  0  0  0  0  0  0  0  0
  -13.6230    3.7307  -18.9661 C   0  0  0  0  0  0  0  0  0  0  0  0
  -13.3238    4.9250  -18.3077 C   0  0  0  0  0  0  0  0  0  0  0  0
  -13.7887    5.1505  -17.0088 C   0  0  0  0  0  0  0  0  0  0  0  0
  -13.4743    6.4294  -16.2888 C   0  0  0  0  0  0  0  0  0  0  0  0
  -14.5654    4.1622  -16.3850 C   0  0  0  0  0  0  0  0  0  0  0  0
 17 18  2  0  0  0
 18 19  1  0  0  0
 18 20  2  0  0  0
 18 13  1  0  0  0
 13 14  1  0  0  0
 13 16  1  0  0  0
 14 15  2  0  0  0
 14  7  1  0  0  0
  7  8  2  0  0  0
  7 11  1  0  0  0
  8  9  1  0  0  0
  9 10  1  0  0  0
  9 12  1  0  0  0
 10  1  1  0  0  0
 10 11  2  0  0  0
  1  2  1  0  0  0
  1  6  2  0  0  0
  2  3  2  0  0  0
  3 21  1  0  0  0
  3  4  1  0  0  0
 21 22  1  0  0  0
 22 23  1  0  0  0
 22 27  2  0  0  0
 23 24  2  0  0  0
 24 25  1  0  0  0
 25 28  1  0  0  0
 25 26  2  0  0  0
 28 29  1  0  0  0
 28 32  1  0  0  0
 29 30  2  0  0  0
 29 31  1  0  0  0
 31 34  1  0  0  0
 31 33  1  0  0  0
 34 35  1  0  0  0
 34 40  2  0  0  0
 35 36  2  0  0  0
 36 37  1  0  0  0
 37 38  2  0  0  0
 38 39  1  0  0  0
 38 40  1  0  0  0
 26 27  1  0  0  0
  4  5  2  0  0  0
  5  6  1  0  0  0
M  END
> <minimizedAffinity>
-5.90219

$$$$
