CHEMBL3660305


 32 35  0  0  0  0  0  0  0  0999 V2000
  -16.3692    0.6142  -14.9163 C   0  0  0  0  0  0  0  0  0  0  0  0
  -15.7455    1.6443  -15.6155 C   0  0  0  0  0  0  0  0  0  0  0  0
  -16.4831    2.7648  -15.9898 C   0  0  0  0  0  0  0  0  0  0  0  0
  -17.8316    2.8742  -15.6360 C   0  0  0  0  0  0  0  0  0  0  0  0
  -18.4848    1.8766  -14.8881 C   0  0  0  0  0  0  0  0  0  0  0  0
  -17.7160    0.7482  -14.5341 C   0  0  0  0  0  0  0  0  0  0  0  0
  -14.5521   -2.0644  -13.2668 N   0  0  0  0  0  0  0  0  0  0  0  0
  -15.2534   -0.8696  -13.3363 C   0  0  0  0  0  0  0  0  0  0  0  0
  -15.5817   -0.1706  -12.3905 O   0  0  0  0  0  0  0  0  0  0  0  0
  -15.6325   -0.5692  -14.6469 N   0  0  0  0  0  0  0  0  0  0  0  0
  -14.4498   -2.5823  -14.1264 H   0  0  0  0  0  0  0  0  0  0  0  0
  -15.8890   -1.3756  -15.1962 H   0  0  0  0  0  0  0  0  0  0  0  0
  -10.6974   -3.7757  -10.6738 C   0  0  0  0  0  0  0  0  0  0  0  0
  -12.1790   -3.5769  -10.8201 C   0  0  0  0  0  0  0  0  0  0  0  0
  -13.0451   -4.0792   -9.8445 C   0  0  0  0  0  0  0  0  0  0  0  0
  -14.4122   -3.8641   -9.9560 C   0  0  0  0  0  0  0  0  0  0  0  0
  -14.9254   -3.1631  -11.0449 C   0  0  0  0  0  0  0  0  0  0  0  0
  -16.2356   -2.8983  -10.9976 F   0  0  0  0  0  0  0  0  0  0  0  0
  -14.0980   -2.7000  -12.0769 C   0  0  0  0  0  0  0  0  0  0  0  0
  -12.7092   -2.8896  -11.9333 C   0  0  0  0  0  0  0  0  0  0  0  0
  -19.9265    1.9984  -14.5387 C   0  0  0  0  0  0  0  0  0  0  0  0
  -20.5966    3.2303  -14.5783 C   0  0  0  0  0  0  0  0  0  0  0  0
  -21.9578    3.2856  -14.3060 C   0  0  0  0  0  0  0  0  0  0  0  0
  -22.7015    2.2145  -13.9728 N   0  0  0  0  0  0  0  0  0  0  0  0
  -22.0534    1.0280  -13.9099 C   0  0  0  0  0  0  0  0  0  0  0  0
  -20.6969    0.8803  -14.1849 C   0  0  0  0  0  0  0  0  0  0  0  0
  -22.9044   -0.0972  -13.5333 C   0  0  0  0  0  0  0  0  0  0  0  0
  -22.8914   -0.9550  -12.4437 C   0  0  0  0  0  0  0  0  0  0  0  0
  -23.9589   -1.8740  -12.5925 C   0  0  0  0  0  0  0  0  0  0  0  0
  -24.6062   -1.5618  -13.7649 C   0  0  0  0  0  0  0  0  0  0  0  0
  -23.9660   -0.4890  -14.3211 N   0  0  0  0  0  0  0  0  0  0  0  0
  -24.2063   -0.0224  -15.1881 H   0  0  0  0  0  0  0  0  0  0  0  0
 13 14  1  0  0  0
 14 15  1  0  0  0
 14 20  2  0  0  0
 15 16  2  0  0  0
 16 17  1  0  0  0
 17 18  1  0  0  0
 17 19  2  0  0  0
 19  7  1  0  0  0
 19 20  1  0  0  0
  7  8  1  0  0  0
  7 11  1  0  0  0
  8  9  2  0  0  0
  8 10  1  0  0  0
 10  1  1  0  0  0
 10 12  1  0  0  0
  1  2  1  0  0  0
  1  6  2  0  0  0
  2  3  2  0  0  0
  3  4  1  0  0  0
  4  5  2  0  0  0
  5 21  1  0  0  0
  5  6  1  0  0  0
 21 22  1  0  0  0
 21 26  2  0  0  0
 22 23  2  0  0  0
 23 24  1  0  0  0
 24 25  2  0  0  0
 25 27  1  0  0  0
 25 26  1  0  0  0
 27 28  2  0  0  0
 27 31  1  0  0  0
 28 29  1  0  0  0
 29 30  2  0  0  0
 30 31  1  0  0  0
 31 32  1  0  0  0
M  END
> <minimizedAffinity>
-10.58638

$$$$
