CHEMBL1076472


 48 53  0  0  0  0  0  0  0  0999 V2000
  -27.8088   -2.8246   -7.2214 C   0  0  0  0  0  0  0  0  0  0  0  0
  -27.1502   -2.3918   -6.1519 N   0  0  0  0  0  0  0  0  0  0  0  0
  -27.6308   -1.1123   -6.0088 C   0  0  0  0  0  0  0  0  0  0  0  0
  -27.6873   -0.2918   -4.8763 C   0  0  0  0  0  0  0  0  0  0  0  0
  -28.4093    0.9056   -4.9630 C   0  0  0  0  0  0  0  0  0  0  0  0
  -28.9967    1.3113   -6.1658 C   0  0  0  0  0  0  0  0  0  0  0  0
  -28.8717    0.5487   -7.3312 C   0  0  0  0  0  0  0  0  0  0  0  0
  -28.1967   -0.6711   -7.2033 C   0  0  0  0  0  0  0  0  0  0  0  0
  -27.9163   -1.7208   -8.0724 N   0  0  0  0  0  0  0  0  0  0  0  0
  -27.5295   -1.6210   -9.4345 C   0  0  0  0  0  0  0  0  0  0  0  0
  -26.1768   -1.7117   -9.7247 C   0  0  0  0  0  0  0  0  0  0  0  0
  -25.7892   -1.6205  -11.0453 C   0  0  0  0  0  0  0  0  0  0  0  0
  -26.6874   -1.4159  -12.0154 N   0  0  0  0  0  0  0  0  0  0  0  0
  -27.9791   -1.3682  -11.6432 C   0  0  0  0  0  0  0  0  0  0  0  0
  -28.4612   -1.5033  -10.3969 N   0  0  0  0  0  0  0  0  0  0  0  0
  -24.4219   -1.6525  -11.3073 N   0  0  0  0  0  0  0  0  0  0  0  0
  -23.9768   -2.5055  -10.9821 H   0  0  0  0  0  0  0  0  0  0  0  0
  -23.9231   -1.1829  -12.5887 C   0  0  0  0  0  0  0  0  0  0  0  0
  -23.7232    0.3295  -12.4607 C   0  0  0  0  0  0  0  0  0  0  0  0
  -23.0020    0.9299  -13.6598 C   0  0  0  0  0  0  0  0  0  0  0  0
  -21.5065    0.6654  -13.6822 C   0  0  0  0  0  0  0  0  0  0  0  0
  -21.0011    1.7346  -14.6321 C   0  0  0  0  0  0  0  0  0  0  0  0
  -21.9677    2.8975  -14.4492 C   0  0  0  0  0  0  0  0  0  0  0  0
  -23.0624    2.3950  -13.6184 N   0  0  0  0  0  0  0  0  0  0  0  0
  -23.9628    2.7344  -13.9528 H   0  0  0  0  0  0  0  0  0  0  0  0
  -28.8439   -3.6830   -7.0229 N   0  0  0  0  0  0  0  0  0  0  0  0
  -29.7162   -3.1598   -7.1168 H   0  0  0  0  0  0  0  0  0  0  0  0
  -30.9473   -3.1290   -5.1851 C   0  0  0  0  0  0  0  0  0  0  0  0
  -30.0301   -4.3142   -5.0266 C   0  0  0  0  0  0  0  0  0  0  0  0
  -30.1211   -5.0947   -3.8753 C   0  0  0  0  0  0  0  0  0  0  0  0
  -29.2900   -6.2001   -3.7072 C   0  0  0  0  0  0  0  0  0  0  0  0
  -28.3646   -6.5608   -4.6895 C   0  0  0  0  0  0  0  0  0  0  0  0
  -28.2595   -5.7720   -5.8470 C   0  0  0  0  0  0  0  0  0  0  0  0
  -29.0712   -4.6430   -6.0171 C   0  0  0  0  0  0  0  0  0  0  0  0
  -27.4991   -7.6742   -4.5672 N   0  0  0  0  0  0  0  0  0  0  0  0
  -27.8198   -8.9051   -4.0188 C   0  0  0  0  0  0  0  0  0  0  0  0
  -28.8892   -9.2265   -3.5125 O   0  0  0  0  0  0  0  0  0  0  0  0
  -26.5454   -7.5198   -4.8657 H   0  0  0  0  0  0  0  0  0  0  0  0
  -26.7462   -9.9359   -4.0224 C   0  0  0  0  0  0  0  0  0  0  0  0
  -26.7610  -11.0487   -3.1723 C   0  0  0  0  0  0  0  0  0  0  0  0
  -25.6892  -11.9456   -3.1836 C   0  0  0  0  0  0  0  0  0  0  0  0
  -24.6059  -11.7419   -4.0423 C   0  0  0  0  0  0  0  0  0  0  0  0
  -24.5794  -10.6390   -4.9076 C   0  0  0  0  0  0  0  0  0  0  0  0
  -25.6530   -9.7371   -4.8790 C   0  0  0  0  0  0  0  0  0  0  0  0
  -23.4298  -10.4101   -5.8587 C   0  0  0  0  0  0  0  0  0  0  0  0
  -23.6512  -10.9085   -7.1073 F   0  0  0  0  0  0  0  0  0  0  0  0
  -23.1588   -9.0867   -6.0309 F   0  0  0  0  0  0  0  0  0  0  0  0
  -22.2705  -10.9793   -5.4302 F   0  0  0  0  0  0  0  0  0  0  0  0
 28 29  1  0  0  0
 29 30  1  0  0  0
 29 34  2  0  0  0
 30 31  2  0  0  0
 31 32  1  0  0  0
 32 35  1  0  0  0
 32 33  2  0  0  0
 35 36  1  0  0  0
 35 38  1  0  0  0
 36 37  2  0  0  0
 36 39  1  0  0  0
 39 40  1  0  0  0
 39 44  2  0  0  0
 40 41  2  0  0  0
 41 42  1  0  0  0
 42 43  2  0  0  0
 43 45  1  0  0  0
 43 44  1  0  0  0
 45 46  1  0  0  0
 45 47  1  0  0  0
 45 48  1  0  0  0
 33 34  1  0  0  0
 34 26  1  0  0  0
 26  1  1  0  0  0
 26 27  1  0  0  0
  1  2  2  0  0  0
  1  9  1  0  0  0
  2  3  1  0  0  0
  3  4  1  0  0  0
  3  8  2  0  0  0
  4  5  2  0  0  0
  5  6  1  0  0  0
  6  7  2  0  0  0
  7  8  1  0  0  0
  8  9  1  0  0  0
  9 10  1  0  0  0
 10 11  1  0  0  0
 10 15  2  0  0  0
 11 12  2  0  0  0
 12 16  1  0  0  0
 12 13  1  0  0  0
 16 18  1  0  0  0
 16 17  1  0  0  0
 18 19  1  0  0  0
 19 20  1  0  0  0
 20 21  1  0  0  0
 20 24  1  0  0  0
 21 22  1  0  0  0
 22 23  1  0  0  0
 23 24  1  0  0  0
 24 25  1  0  0  0
 13 14  2  0  0  0
 14 15  1  0  0  0
M  END
> <minimizedAffinity>
-10.40848

$$$$
