CHEMBL3690392


 37 41  0  0  0  0  0  0  0  0999 V2000
  -22.4793    0.3933  -14.1174 C   0  0  0  0  0  0  0  0  0  0  0  0
  -21.2891   -0.3587  -14.5030 C   0  0  0  0  0  0  0  0  0  0  0  0
  -20.1627    0.2991  -14.8180 C   0  0  0  0  0  0  0  0  0  0  0  0
  -20.1251    1.6922  -14.7392 N   0  0  0  0  0  0  0  0  0  0  0  0
  -19.0853    2.5895  -14.9596 C   0  0  0  0  0  0  0  0  0  0  0  0
  -19.6889    3.8308  -14.7971 C   0  0  0  0  0  0  0  0  0  0  0  0
  -21.0076    3.7321  -14.4487 N   0  0  0  0  0  0  0  0  0  0  0  0
  -21.2553    2.4443  -14.4086 C   0  0  0  0  0  0  0  0  0  0  0  0
  -22.4585    1.7467  -14.0993 C   0  0  0  0  0  0  0  0  0  0  0  0
  -29.1552   -2.8470  -13.4718 C   0  0  0  0  0  0  0  0  0  0  0  0
  -27.8329   -2.2358  -13.1040 C   0  0  0  0  0  0  0  0  0  0  0  0
  -27.4579   -2.0840  -11.8244 C   0  0  0  0  0  0  0  0  0  0  0  0
  -26.1411   -1.4756  -11.5128 C   0  0  0  0  0  0  0  0  0  0  0  0
  -25.8062   -1.3249  -10.3419 O   0  0  0  0  0  0  0  0  0  0  0  0
  -25.4186   -1.1301  -12.6334 N   0  0  0  0  0  0  0  0  0  0  0  0
  -24.1791   -0.5283  -12.5565 N   0  0  0  0  0  0  0  0  0  0  0  0
  -23.7525   -0.2844  -13.7549 C   0  0  0  0  0  0  0  0  0  0  0  0
  -24.7942   -0.7848  -15.0749 S   0  0  0  0  0  0  0  0  0  0  0  0
  -25.9194   -1.3359  -13.8872 C   0  0  0  0  0  0  0  0  0  0  0  0
  -27.0614   -1.8554  -14.1779 N   0  0  0  0  0  0  0  0  0  0  0  0
  -17.6992    2.2773  -15.3450 C   0  0  0  0  0  0  0  0  0  0  0  0
  -17.0205    3.1626  -16.1934 C   0  0  0  0  0  0  0  0  0  0  0  0
  -15.7117    2.9067  -16.5924 C   0  0  0  0  0  0  0  0  0  0  0  0
  -15.0649    1.7487  -16.1686 C   0  0  0  0  0  0  0  0  0  0  0  0
  -15.7018    0.8449  -15.3193 C   0  0  0  0  0  0  0  0  0  0  0  0
  -17.0074    1.1391  -14.8845 C   0  0  0  0  0  0  0  0  0  0  0  0
  -15.0932   -0.3514  -14.8651 N   0  0  0  0  0  0  0  0  0  0  0  0
  -14.9663   -0.7563  -13.5521 C   0  0  0  0  0  0  0  0  0  0  0  0
  -15.3046   -0.1384  -12.5536 O   0  0  0  0  0  0  0  0  0  0  0  0
  -14.4435   -2.0268  -13.4397 N   0  0  0  0  0  0  0  0  0  0  0  0
  -14.7073   -0.9634  -15.5678 H   0  0  0  0  0  0  0  0  0  0  0  0
  -13.8351   -2.3608  -14.1729 H   0  0  0  0  0  0  0  0  0  0  0  0
  -14.2606   -2.5840  -12.0928 C   0  0  0  0  0  0  0  0  0  0  0  0
  -15.4831   -3.2707  -11.4616 C   0  0  0  0  0  0  0  0  0  0  0  0
  -16.4773   -3.4719  -12.3563 F   0  0  0  0  0  0  0  0  0  0  0  0
  -15.1743   -4.4560  -10.8967 F   0  0  0  0  0  0  0  0  0  0  0  0
  -15.9947   -2.4817  -10.4820 F   0  0  0  0  0  0  0  0  0  0  0  0
 10 11  1  0  0  0
 11 12  2  0  0  0
 11 20  1  0  0  0
 12 13  1  0  0  0
 13 14  2  0  0  0
 13 15  1  0  0  0
 15 16  1  0  0  0
 15 19  1  0  0  0
 16 17  2  0  0  0
 17  1  1  0  0  0
 17 18  1  0  0  0
  1  2  1  0  0  0
  1  9  2  0  0  0
  2  3  2  0  0  0
  3  4  1  0  0  0
  4  5  1  0  0  0
  4  8  1  0  0  0
  5 21  1  0  0  0
  5  6  2  0  0  0
 21 22  1  0  0  0
 21 26  2  0  0  0
 22 23  2  0  0  0
 23 24  1  0  0  0
 24 25  2  0  0  0
 25 27  1  0  0  0
 25 26  1  0  0  0
 27 28  1  0  0  0
 27 31  1  0  0  0
 28 29  2  0  0  0
 28 30  1  0  0  0
 30 33  1  0  0  0
 30 32  1  0  0  0
 33 34  1  0  0  0
 34 35  1  0  0  0
 34 36  1  0  0  0
 34 37  1  0  0  0
  6  7  1  0  0  0
  7  8  2  0  0  0
  8  9  1  0  0  0
 18 19  1  0  0  0
 19 20  2  0  0  0
M  END
> <minimizedAffinity>
-9.84341

$$$$
