CHEMBL407516


 45 51  0  0  0  0  0  0  0  0999 V2000
  -29.0183   -3.0615   -5.7160 N   0  0  0  0  0  0  0  0  0  0  0  0
  -28.6765   -1.9200   -6.4328 C   0  0  0  0  0  0  0  0  0  0  0  0
  -28.7676   -0.7651   -6.0268 O   0  0  0  0  0  0  0  0  0  0  0  0
  -28.1514   -2.1287   -7.7938 C   0  0  0  0  0  0  0  0  0  0  0  0
  -27.7840   -1.0882   -8.6142 C   0  0  0  0  0  0  0  0  0  0  0  0
  -27.2614   -1.2654   -9.8519 N   0  0  0  0  0  0  0  0  0  0  0  0
  -27.1364   -2.5260  -10.2934 C   0  0  0  0  0  0  0  0  0  0  0  0
  -27.4869   -3.5941   -9.5646 N   0  0  0  0  0  0  0  0  0  0  0  0
  -27.9755   -3.3801   -8.3285 C   0  0  0  0  0  0  0  0  0  0  0  0
  -28.3116   -4.4802   -7.5220 N   0  0  0  0  0  0  0  0  0  0  0  0
  -28.2040   -5.8314   -7.7789 C   0  0  0  0  0  0  0  0  0  0  0  0
  -27.7323   -6.5860   -8.8651 C   0  0  0  0  0  0  0  0  0  0  0  0
  -27.7882   -7.9799   -8.7611 C   0  0  0  0  0  0  0  0  0  0  0  0
  -28.2810   -8.5976   -7.6159 C   0  0  0  0  0  0  0  0  0  0  0  0
  -28.7385   -7.8262   -6.5369 C   0  0  0  0  0  0  0  0  0  0  0  0
  -28.6969   -6.4319   -6.6264 C   0  0  0  0  0  0  0  0  0  0  0  0
  -29.0807   -5.4940   -5.7006 N   0  0  0  0  0  0  0  0  0  0  0  0
  -28.8284   -4.3286   -6.2515 C   0  0  0  0  0  0  0  0  0  0  0  0
  -31.7166   -4.0629   -5.2173 C   0  0  0  0  0  0  0  0  0  0  0  0
  -30.8518   -3.4636   -4.1427 C   0  0  0  0  0  0  0  0  0  0  0  0
  -31.3637   -3.3614   -2.8410 C   0  0  0  0  0  0  0  0  0  0  0  0
  -30.5912   -2.8285   -1.8123 C   0  0  0  0  0  0  0  0  0  0  0  0
  -29.2959   -2.3857   -2.0680 C   0  0  0  0  0  0  0  0  0  0  0  0
  -28.7578   -2.4546   -3.3615 C   0  0  0  0  0  0  0  0  0  0  0  0
  -27.3656   -1.9366   -3.5959 C   0  0  0  0  0  0  0  0  0  0  0  0
  -29.5447   -2.9943   -4.4036 C   0  0  0  0  0  0  0  0  0  0  0  0
  -26.5438   -2.7098  -11.5343 N   0  0  0  0  0  0  0  0  0  0  0  0
  -26.8120   -3.5910  -11.9463 H   0  0  0  0  0  0  0  0  0  0  0  0
  -25.6268   -1.9121  -12.2264 C   0  0  0  0  0  0  0  0  0  0  0  0
  -24.5267   -1.3894  -11.5404 C   0  0  0  0  0  0  0  0  0  0  0  0
  -23.5640   -0.6164  -12.1999 C   0  0  0  0  0  0  0  0  0  0  0  0
  -23.6819   -0.3519  -13.5671 C   0  0  0  0  0  0  0  0  0  0  0  0
  -24.7454   -0.9194  -14.2611 C   0  0  0  0  0  0  0  0  0  0  0  0
  -24.8675   -0.7327  -15.5845 F   0  0  0  0  0  0  0  0  0  0  0  0
  -25.7063   -1.6822  -13.6037 C   0  0  0  0  0  0  0  0  0  0  0  0
  -22.8400    0.4400  -14.3035 O   0  0  0  0  0  0  0  0  0  0  0  0
  -21.8236    1.0996  -13.5523 C   0  0  0  0  0  0  0  0  0  0  0  0
  -21.3969    2.3919  -14.2591 C   0  0  0  0  0  0  0  0  0  0  0  0
  -20.0955    2.2568  -14.9332 N   0  0  0  0  0  0  0  0  0  0  0  0
  -19.0628    3.1492  -14.3699 C   0  0  0  0  0  0  0  0  0  0  0  0
  -17.7069    2.9871  -15.0868 C   0  0  0  0  0  0  0  0  0  0  0  0
  -17.1781    1.6093  -15.0996 N   0  0  0  0  0  0  0  0  0  0  0  0
  -16.6752    1.2235  -13.7849 C   0  0  0  0  0  0  0  0  0  0  0  0
  -18.2380    0.6953  -15.5738 C   0  0  0  0  0  0  0  0  0  0  0  0
  -19.6152    0.8617  -14.8840 C   0  0  0  0  0  0  0  0  0  0  0  0
 19 20  1  0  0  0
 20 21  1  0  0  0
 20 26  2  0  0  0
 21 22  2  0  0  0
 22 23  1  0  0  0
 23 24  2  0  0  0
 24 25  1  0  0  0
 24 26  1  0  0  0
 26  1  1  0  0  0
  1  2  1  0  0  0
  1 18  1  0  0  0
  2  3  2  0  0  0
  2  4  1  0  0  0
  4  5  1  0  0  0
  4  9  2  0  0  0
  5  6  2  0  0  0
  6  7  1  0  0  0
  7 27  1  0  0  0
  7  8  2  0  0  0
 27 29  1  0  0  0
 27 28  1  0  0  0
 29 30  1  0  0  0
 29 35  2  0  0  0
 30 31  2  0  0  0
 31 32  1  0  0  0
 32 36  1  0  0  0
 32 33  2  0  0  0
 36 37  1  0  0  0
 37 38  1  0  0  0
 38 39  1  0  0  0
 39 40  1  0  0  0
 39 45  1  0  0  0
 40 41  1  0  0  0
 41 42  1  0  0  0
 42 43  1  0  0  0
 42 44  1  0  0  0
 44 45  1  0  0  0
 33 34  1  0  0  0
 33 35  1  0  0  0
  8  9  1  0  0  0
  9 10  1  0  0  0
 10 11  1  0  0  0
 10 18  1  0  0  0
 11 12  1  0  0  0
 11 16  2  0  0  0
 12 13  2  0  0  0
 13 14  1  0  0  0
 14 15  2  0  0  0
 15 16  1  0  0  0
 16 17  1  0  0  0
 17 18  2  0  0  0
M  END
> <minimizedAffinity>
-7.16344

$$$$
