CHEMBL363648


 30 33  0  0  0  0  0  0  0  0999 V2000
  -28.5325   -4.0671   -7.4718 C   0  0  0  0  0  0  0  0  0  0  0  0
  -29.1624   -3.0499   -6.7525 C   0  0  0  0  0  0  0  0  0  0  0  0
  -28.8210   -1.7378   -7.0123 C   0  0  0  0  0  0  0  0  0  0  0  0
  -27.9678   -1.3720   -7.9834 N   0  0  0  0  0  0  0  0  0  0  0  0
  -27.3997   -2.3307   -8.7281 C   0  0  0  0  0  0  0  0  0  0  0  0
  -27.6199   -3.6821   -8.4712 C   0  0  0  0  0  0  0  0  0  0  0  0
  -29.1132   -7.9128   -7.4833 C   0  0  0  0  0  0  0  0  0  0  0  0
  -29.7583   -7.5156   -6.4124 N   0  0  0  0  0  0  0  0  0  0  0  0
  -29.6011   -6.1429   -6.2233 C   0  0  0  0  0  0  0  0  0  0  0  0
  -28.8557   -5.4895   -7.2111 C   0  0  0  0  0  0  0  0  0  0  0  0
  -28.3056   -6.6809   -8.3461 S   0  0  0  0  0  0  0  0  0  0  0  0
  -30.2499   -5.5213   -5.0649 C   0  0  0  0  0  0  0  0  0  0  0  0
  -31.5178   -5.9675   -4.6627 C   0  0  0  0  0  0  0  0  0  0  0  0
  -32.1863   -5.3530   -3.5995 C   0  0  0  0  0  0  0  0  0  0  0  0
  -31.6035   -4.2728   -2.9378 C   0  0  0  0  0  0  0  0  0  0  0  0
  -30.3325   -3.8245   -3.3073 C   0  0  0  0  0  0  0  0  0  0  0  0
  -29.7140   -2.6180   -2.6648 C   0  0  0  0  0  0  0  0  0  0  0  0
  -29.6485   -4.4822   -4.3419 C   0  0  0  0  0  0  0  0  0  0  0  0
  -29.4441   -9.4688   -9.4148 C   0  0  0  0  0  0  0  0  0  0  0  0
  -29.0470   -9.3330   -7.9531 C   0  0  0  0  0  0  0  0  0  0  0  0
  -26.6079   -1.9916   -9.8395 N   0  0  0  0  0  0  0  0  0  0  0  0
  -27.1019   -1.4535  -11.0139 C   0  0  0  0  0  0  0  0  0  0  0  0
  -28.2483   -1.0737  -11.2272 O   0  0  0  0  0  0  0  0  0  0  0  0
  -25.6218   -2.1833   -9.7709 H   0  0  0  0  0  0  0  0  0  0  0  0
  -26.1172   -1.3008  -12.1258 C   0  0  0  0  0  0  0  0  0  0  0  0
  -26.3655   -1.7471  -13.4310 C   0  0  0  0  0  0  0  0  0  0  0  0
  -25.4069   -1.5470  -14.4304 C   0  0  0  0  0  0  0  0  0  0  0  0
  -24.2096   -0.8936  -14.1360 C   0  0  0  0  0  0  0  0  0  0  0  0
  -23.9672   -0.4285  -12.8453 C   0  0  0  0  0  0  0  0  0  0  0  0
  -24.9192   -0.6279  -11.8458 C   0  0  0  0  0  0  0  0  0  0  0  0
 19 20  1  0  0  0
 20  7  1  0  0  0
  7  8  2  0  0  0
  7 11  1  0  0  0
  8  9  1  0  0  0
  9 12  1  0  0  0
  9 10  2  0  0  0
 12 13  1  0  0  0
 12 18  2  0  0  0
 13 14  2  0  0  0
 14 15  1  0  0  0
 15 16  2  0  0  0
 16 17  1  0  0  0
 16 18  1  0  0  0
 10  1  1  0  0  0
 10 11  1  0  0  0
  1  2  1  0  0  0
  1  6  2  0  0  0
  2  3  2  0  0  0
  3  4  1  0  0  0
  4  5  2  0  0  0
  5 21  1  0  0  0
  5  6  1  0  0  0
 21 22  1  0  0  0
 21 24  1  0  0  0
 22 23  2  0  0  0
 22 25  1  0  0  0
 25 26  1  0  0  0
 25 30  2  0  0  0
 26 27  2  0  0  0
 27 28  1  0  0  0
 28 29  2  0  0  0
 29 30  1  0  0  0
M  END
> <minimizedAffinity>
-9.38783

$$$$
