CHEMBL4788859


 34 39  0  0  0  0  0  0  0  0999 V2000
  -14.4728    2.2695  -16.2198 C   0  0  0  0  0  0  0  0  0  0  0  0
  -13.9815    1.3767  -15.2834 C   0  0  0  0  0  0  0  0  0  0  0  0
  -14.9641    0.9740  -14.4126 N   0  0  0  0  0  0  0  0  0  0  0  0
  -16.0464    1.6125  -14.8007 C   0  0  0  0  0  0  0  0  0  0  0  0
  -17.4158    1.4301  -14.4822 C   0  0  0  0  0  0  0  0  0  0  0  0
  -18.3608    2.2332  -15.0286 C   0  0  0  0  0  0  0  0  0  0  0  0
  -17.9708    3.3908  -15.8321 C   0  0  0  0  0  0  0  0  0  0  0  0
  -16.6887    3.5054  -16.2151 C   0  0  0  0  0  0  0  0  0  0  0  0
  -15.7544    2.5631  -15.7718 N   0  0  0  0  0  0  0  0  0  0  0  0
  -13.1705    0.5636  -20.6408 C   0  0  0  0  0  0  0  0  0  0  0  0
  -13.3287    1.7116  -19.6902 C   0  0  0  0  0  0  0  0  0  0  0  0
  -14.0903    1.5713  -18.5445 C   0  0  0  0  0  0  0  0  0  0  0  0
  -14.0449    2.5836  -17.5868 C   0  0  0  0  0  0  0  0  0  0  0  0
  -13.3430    3.7910  -17.8656 C   0  0  0  0  0  0  0  0  0  0  0  0
  -13.2996    4.9261  -17.0089 C   0  0  0  0  0  0  0  0  0  0  0  0
  -12.5527    6.0467  -17.3442 C   0  0  0  0  0  0  0  0  0  0  0  0
  -12.5599    7.1147  -16.5365 F   0  0  0  0  0  0  0  0  0  0  0  0
  -11.8006    6.0648  -18.5013 C   0  0  0  0  0  0  0  0  0  0  0  0
  -11.8316    4.9535  -19.3460 C   0  0  0  0  0  0  0  0  0  0  0  0
  -12.6072    3.8321  -19.0662 C   0  0  0  0  0  0  0  0  0  0  0  0
  -12.5866    2.8140  -19.9409 N   0  0  0  0  0  0  0  0  0  0  0  0
  -19.7457    1.7848  -14.8645 C   0  0  0  0  0  0  0  0  0  0  0  0
  -20.7012    2.6154  -14.3072 C   0  0  0  0  0  0  0  0  0  0  0  0
  -21.9542    2.1015  -13.9532 C   0  0  0  0  0  0  0  0  0  0  0  0
  -22.2925    0.7513  -14.1494 C   0  0  0  0  0  0  0  0  0  0  0  0
  -21.3275   -0.0499  -14.7789 C   0  0  0  0  0  0  0  0  0  0  0  0
  -20.0725    0.4550  -15.1368 C   0  0  0  0  0  0  0  0  0  0  0  0
  -23.4877    0.2343  -13.6928 N   0  0  0  0  0  0  0  0  0  0  0  0
  -23.9628    0.4387  -12.3167 C   0  0  0  0  0  0  0  0  0  0  0  0
  -24.4719   -0.8932  -11.7216 C   0  0  0  0  0  0  0  0  0  0  0  0
  -25.4984   -1.5579  -12.5534 N   0  0  0  0  0  0  0  0  0  0  0  0
  -24.9488   -1.7537  -13.9126 C   0  0  0  0  0  0  0  0  0  0  0  0
  -24.4447   -0.4478  -14.5788 C   0  0  0  0  0  0  0  0  0  0  0  0
  -26.2966   -0.9278  -12.6284 H   0  0  0  0  0  0  0  0  0  0  0  0
 10 11  1  0  0  0
 11 12  1  0  0  0
 11 21  2  0  0  0
 12 13  2  0  0  0
 13  1  1  0  0  0
 13 14  1  0  0  0
  1  2  2  0  0  0
  1  9  1  0  0  0
  2  3  1  0  0  0
  3  4  2  0  0  0
  4  5  1  0  0  0
  4  9  1  0  0  0
  5  6  2  0  0  0
  6 22  1  0  0  0
  6  7  1  0  0  0
 22 23  1  0  0  0
 22 27  2  0  0  0
 23 24  2  0  0  0
 24 25  1  0  0  0
 25 28  1  0  0  0
 25 26  2  0  0  0
 28 29  1  0  0  0
 28 33  1  0  0  0
 29 30  1  0  0  0
 30 31  1  0  0  0
 31 32  1  0  0  0
 31 34  1  0  0  0
 32 33  1  0  0  0
 26 27  1  0  0  0
  7  8  2  0  0  0
  8  9  1  0  0  0
 14 15  1  0  0  0
 14 20  2  0  0  0
 15 16  2  0  0  0
 16 17  1  0  0  0
 16 18  1  0  0  0
 18 19  2  0  0  0
 19 20  1  0  0  0
 20 21  1  0  0  0
M  END
> <minimizedAffinity>
-9.44851

$$$$
