CHEMBL3353349


 39 44  0  0  0  0  0  0  0  0999 V2000
  -15.2037    0.0242  -14.3733 C   0  0  0  0  0  0  0  0  0  0  0  0
  -14.1035    0.7211  -14.6975 N   0  0  0  0  0  0  0  0  0  0  0  0
  -13.1266   -0.1865  -14.6764 N   0  0  0  0  0  0  0  0  0  0  0  0
  -13.5647   -1.4677  -14.5233 C   0  0  0  0  0  0  0  0  0  0  0  0
  -12.9234   -2.6915  -14.7092 C   0  0  0  0  0  0  0  0  0  0  0  0
  -13.6808   -3.8531  -14.5087 C   0  0  0  0  0  0  0  0  0  0  0  0
  -14.9389   -3.7442  -13.8946 C   0  0  0  0  0  0  0  0  0  0  0  0
  -15.5673   -2.5084  -13.7138 C   0  0  0  0  0  0  0  0  0  0  0  0
  -14.8983   -1.3488  -14.1416 C   0  0  0  0  0  0  0  0  0  0  0  0
  -12.1746    0.1313  -14.8146 H   0  0  0  0  0  0  0  0  0  0  0  0
  -13.2361   -5.1966  -15.0167 C   0  0  0  0  0  0  0  0  0  0  0  0
  -14.0224   -6.4787  -14.8554 C   0  0  0  0  0  0  0  0  0  0  0  0
  -12.8516   -6.2396  -13.9586 C   0  0  0  0  0  0  0  0  0  0  0  0
  -11.4895   -6.8693  -14.1080 C   0  0  0  0  0  0  0  0  0  0  0  0
  -10.9497   -7.1385  -15.1670 O   0  0  0  0  0  0  0  0  0  0  0  0
  -10.9664   -7.0022  -12.8373 N   0  0  0  0  0  0  0  0  0  0  0  0
  -11.8156   -6.4670  -11.8665 C   0  0  0  0  0  0  0  0  0  0  0  0
  -11.5384   -6.2934  -10.5301 C   0  0  0  0  0  0  0  0  0  0  0  0
  -12.5399   -5.7316   -9.7414 C   0  0  0  0  0  0  0  0  0  0  0  0
  -13.8088   -5.4400  -10.2791 C   0  0  0  0  0  0  0  0  0  0  0  0
  -14.0500   -5.6058  -11.6511 C   0  0  0  0  0  0  0  0  0  0  0  0
  -13.0204   -6.0674  -12.4665 C   0  0  0  0  0  0  0  0  0  0  0  0
  -10.0658   -7.4259  -12.6589 H   0  0  0  0  0  0  0  0  0  0  0  0
  -14.7030   -4.9091   -9.3911 O   0  0  0  0  0  0  0  0  0  0  0  0
  -14.9804   -3.5291   -9.5681 C   0  0  0  0  0  0  0  0  0  0  0  0
  -13.9466   -2.9471  -10.2266 F   0  0  0  0  0  0  0  0  0  0  0  0
  -16.0578   -3.4387  -10.3908 F   0  0  0  0  0  0  0  0  0  0  0  0
  -17.2300    1.1500  -15.2869 C   0  0  0  0  0  0  0  0  0  0  0  0
  -16.4534    0.7001  -14.2926 C   0  0  0  0  0  0  0  0  0  0  0  0
  -21.3552    1.4206  -14.3412 C   0  0  0  0  0  0  0  0  0  0  0  0
  -20.5279    2.5292  -14.0839 C   0  0  0  0  0  0  0  0  0  0  0  0
  -19.1664    2.4873  -14.3931 C   0  0  0  0  0  0  0  0  0  0  0  0
  -18.6387    1.3313  -14.9629 C   0  0  0  0  0  0  0  0  0  0  0  0
  -19.4552    0.2147  -15.1903 C   0  0  0  0  0  0  0  0  0  0  0  0
  -20.8016    0.2536  -14.8747 C   0  0  0  0  0  0  0  0  0  0  0  0
  -22.8464    1.4901  -14.1186 C   0  0  0  0  0  0  0  0  0  0  0  0
  -24.1249    0.5469  -12.2686 C   0  0  0  0  0  0  0  0  0  0  0  0
  -23.3868    0.2654  -13.5046 N   0  0  0  0  0  0  0  0  0  0  0  0
  -24.2606   -0.4138  -14.4596 C   0  0  0  0  0  0  0  0  0  0  0  0
 37 38  1  0  0  0
 38 39  1  0  0  0
 38 36  1  0  0  0
 36 30  1  0  0  0
 30 31  1  0  0  0
 30 35  2  0  0  0
 31 32  2  0  0  0
 32 33  1  0  0  0
 33 28  1  0  0  0
 33 34  2  0  0  0
 28 29  2  0  0  0
 29  1  1  0  0  0
  1  2  2  0  0  0
  1  9  1  0  0  0
  2  3  1  0  0  0
  3  4  1  0  0  0
  3 10  1  0  0  0
  4  5  1  0  0  0
  4  9  2  0  0  0
  5  6  2  0  0  0
  6  7  1  0  0  0
  6 11  1  0  0  0
 11 12  1  0  0  0
 11 13  1  0  0  0
 12 13  1  0  0  0
 13 14  1  0  0  0
 13 22  1  0  0  0
 14 16  1  0  0  0
 14 15  2  0  0  0
 16 17  1  0  0  0
 16 23  1  0  0  0
 17 18  1  0  0  0
 17 22  2  0  0  0
 18 19  2  0  0  0
 19 20  1  0  0  0
 20 21  2  0  0  0
 20 24  1  0  0  0
 24 25  1  0  0  0
 25 26  1  0  0  0
 25 27  1  0  0  0
 21 22  1  0  0  0
  7  8  2  0  0  0
  8  9  1  0  0  0
 34 35  1  0  0  0
M  END
> <minimizedAffinity>
-8.89279

$$$$
