CHEMBL474709


 28 31  0  0  0  0  0  0  0  0999 V2000
  -27.7561   -3.8762   -8.5574 O   0  0  0  0  0  0  0  0  0  0  0  0
  -27.9125   -2.7131   -8.1903 C   0  0  0  0  0  0  0  0  0  0  0  0
  -27.5565   -1.5770   -8.8923 N   0  0  0  0  0  0  0  0  0  0  0  0
  -27.6417   -0.6972   -8.4004 H   0  0  0  0  0  0  0  0  0  0  0  0
  -26.9675   -1.6127  -10.1592 C   0  0  0  0  0  0  0  0  0  0  0  0
  -27.7884   -1.6546  -11.2751 C   0  0  0  0  0  0  0  0  0  0  0  0
  -27.1967   -1.5816  -12.5365 C   0  0  0  0  0  0  0  0  0  0  0  0
  -25.8011   -1.5058  -12.6511 C   0  0  0  0  0  0  0  0  0  0  0  0
  -25.1412   -1.4071  -13.8897 C   0  0  0  0  0  0  0  0  0  0  0  0
  -23.7478   -1.3536  -13.9438 C   0  0  0  0  0  0  0  0  0  0  0  0
  -23.0084   -1.4017  -12.7670 C   0  0  0  0  0  0  0  0  0  0  0  0
  -23.6678   -1.4858  -11.5401 C   0  0  0  0  0  0  0  0  0  0  0  0
  -25.0518   -1.5285  -11.4628 C   0  0  0  0  0  0  0  0  0  0  0  0
  -25.6281   -1.5792  -10.2575 N   0  0  0  0  0  0  0  0  0  0  0  0
  -28.4754   -2.4351   -6.8552 C   0  0  0  0  0  0  0  0  0  0  0  0
  -28.0707   -1.3682   -6.1475 N   0  0  0  0  0  0  0  0  0  0  0  0
  -28.9362   -1.3088   -4.7328 S   0  0  0  0  0  0  0  0  0  0  0  0
  -29.8515   -2.7254   -5.0088 C   0  0  0  0  0  0  0  0  0  0  0  0
  -29.4813   -3.2622   -6.2200 C   0  0  0  0  0  0  0  0  0  0  0  0
  -29.9326   -4.4327   -6.7535 N   0  0  0  0  0  0  0  0  0  0  0  0
  -30.5814   -4.3563   -7.5490 H   0  0  0  0  0  0  0  0  0  0  0  0
  -30.1414   -5.6566   -6.0065 C   0  0  0  0  0  0  0  0  0  0  0  0
  -30.0746   -6.8398   -6.9376 C   0  0  0  0  0  0  0  0  0  0  0  0
  -28.9318   -7.0695   -7.7109 C   0  0  0  0  0  0  0  0  0  0  0  0
  -28.8937   -8.1809   -8.5364 C   0  0  0  0  0  0  0  0  0  0  0  0
  -29.9005   -9.0724   -8.6412 N   0  0  0  0  0  0  0  0  0  0  0  0
  -31.0005   -8.8302   -7.8971 C   0  0  0  0  0  0  0  0  0  0  0  0
  -31.1350   -7.7449   -7.0429 C   0  0  0  0  0  0  0  0  0  0  0  0
  1  2  2  0  0  0
  2  3  1  0  0  0
  2 15  1  0  0  0
  3  5  1  0  0  0
  3  4  1  0  0  0
  5  6  1  0  0  0
  5 14  2  0  0  0
  6  7  2  0  0  0
  7  8  1  0  0  0
  8  9  1  0  0  0
  8 13  2  0  0  0
  9 10  2  0  0  0
 10 11  1  0  0  0
 11 12  2  0  0  0
 12 13  1  0  0  0
 13 14  1  0  0  0
 15 16  2  0  0  0
 15 19  1  0  0  0
 16 17  1  0  0  0
 17 18  1  0  0  0
 18 19  2  0  0  0
 19 20  1  0  0  0
 20 22  1  0  0  0
 20 21  1  0  0  0
 22 23  1  0  0  0
 23 24  1  0  0  0
 23 28  2  0  0  0
 24 25  2  0  0  0
 25 26  1  0  0  0
 26 27  2  0  0  0
 27 28  1  0  0  0
M  END
> <minimizedAffinity>
-9.46304

$$$$
