CHEMBL1242470


 27 29  0  0  0  0  0  0  0  0999 V2000
  -28.3182   -2.8522   -7.3691 N   0  0  0  0  0  0  0  0  0  0  0  0
  -28.6825   -4.0033   -7.9662 N   0  0  0  0  0  0  0  0  0  0  0  0
  -29.0330   -4.8129   -6.9491 C   0  0  0  0  0  0  0  0  0  0  0  0
  -28.8344   -4.1676   -5.6833 C   0  0  0  0  0  0  0  0  0  0  0  0
  -28.9755   -4.4446   -4.3128 C   0  0  0  0  0  0  0  0  0  0  0  0
  -29.3922   -5.6510   -3.7732 N   0  0  0  0  0  0  0  0  0  0  0  0
  -28.7109   -3.4634   -3.4244 N   0  0  0  0  0  0  0  0  0  0  0  0
  -28.3065   -2.2641   -3.8830 C   0  0  0  0  0  0  0  0  0  0  0  0
  -28.1057   -1.8934   -5.1564 N   0  0  0  0  0  0  0  0  0  0  0  0
  -28.3956   -2.8927   -6.0078 C   0  0  0  0  0  0  0  0  0  0  0  0
  -29.1396   -6.4906   -4.2762 H   0  0  0  0  0  0  0  0  0  0  0  0
  -29.2933   -5.6801   -2.7655 H   0  0  0  0  0  0  0  0  0  0  0  0
  -29.5523   -6.1542   -7.2354 C   0  0  0  0  0  0  0  0  0  0  0  0
  -28.7778   -7.0852   -7.9469 C   0  0  0  0  0  0  0  0  0  0  0  0
  -29.2820   -8.3437   -8.2756 C   0  0  0  0  0  0  0  0  0  0  0  0
  -30.5335   -8.7090   -7.8100 C   0  0  0  0  0  0  0  0  0  0  0  0
  -31.0119   -9.9324   -8.0778 F   0  0  0  0  0  0  0  0  0  0  0  0
  -31.2884   -7.8273   -7.0429 C   0  0  0  0  0  0  0  0  0  0  0  0
  -32.4976   -8.2088   -6.5353 O   0  0  0  0  0  0  0  0  0  0  0  0
  -30.8175   -6.5466   -6.7694 C   0  0  0  0  0  0  0  0  0  0  0  0
  -32.6123   -9.1521   -6.7589 H   0  0  0  0  0  0  0  0  0  0  0  0
  -27.8815   -1.7333   -8.1799 C   0  0  0  0  0  0  0  0  0  0  0  0
  -27.2449   -2.1575   -9.5060 C   0  0  0  0  0  0  0  0  0  0  0  0
  -27.7758   -1.3673  -10.7114 C   0  0  0  0  0  0  0  0  0  0  0  0
  -26.9260   -1.5430  -11.9703 C   0  0  0  0  0  0  0  0  0  0  0  0
  -24.7334   -0.0996  -11.9087 N   0  0  0  0  0  0  0  0  0  0  0  0
  -25.7047   -0.7253  -11.9391 C   0  0  0  0  0  0  0  0  0  0  0  0
 26 27  3  0  0  0
 27 25  1  0  0  0
 25 24  1  0  0  0
 24 23  1  0  0  0
 23 22  1  0  0  0
 22  1  1  0  0  0
  1  2  1  0  0  0
  1 10  1  0  0  0
  2  3  2  0  0  0
  3 13  1  0  0  0
  3  4  1  0  0  0
 13 14  1  0  0  0
 13 20  2  0  0  0
 14 15  2  0  0  0
 15 16  1  0  0  0
 16 17  1  0  0  0
 16 18  2  0  0  0
 18 19  1  0  0  0
 18 20  1  0  0  0
 19 21  1  0  0  0
  4  5  1  0  0  0
  4 10  2  0  0  0
  5  6  1  0  0  0
  5  7  2  0  0  0
  6 11  1  0  0  0
  6 12  1  0  0  0
  7  8  1  0  0  0
  8  9  2  0  0  0
  9 10  1  0  0  0
M  END
> <minimizedAffinity>
-7.72636

$$$$
