CHEMBL179082


 35 38  0  0  0  0  0  0  0  0999 V2000
  -29.5384   -7.2382   -5.9517 C   0  0  0  0  0  0  0  0  0  0  0  0
  -28.9759   -7.9046   -7.0368 C   0  0  0  0  0  0  0  0  0  0  0  0
  -28.1474   -9.0110   -6.8177 C   0  0  0  0  0  0  0  0  0  0  0  0
  -27.7964   -9.4112   -5.5248 C   0  0  0  0  0  0  0  0  0  0  0  0
  -28.2279   -8.6261   -4.4491 C   0  0  0  0  0  0  0  0  0  0  0  0
  -29.0991   -7.5469   -4.6621 C   0  0  0  0  0  0  0  0  0  0  0  0
  -27.0532  -10.5840   -5.2466 N   0  0  0  0  0  0  0  0  0  0  0  0
  -25.7200  -10.6374   -4.8921 C   0  0  0  0  0  0  0  0  0  0  0  0
  -24.9761   -9.6749   -4.7491 O   0  0  0  0  0  0  0  0  0  0  0  0
  -25.2647  -11.9471   -4.7594 N   0  0  0  0  0  0  0  0  0  0  0  0
  -27.5348  -11.4666   -5.3327 H   0  0  0  0  0  0  0  0  0  0  0  0
  -25.5465  -12.5294   -5.5392 H   0  0  0  0  0  0  0  0  0  0  0  0
  -23.9155  -12.1617   -4.3289 C   0  0  0  0  0  0  0  0  0  0  0  0
  -23.5410  -12.1518   -2.9707 C   0  0  0  0  0  0  0  0  0  0  0  0
  -24.6989  -12.1328   -1.6812 Cl  0  0  0  0  0  0  0  0  0  0  0  0
  -22.1929  -12.2539   -2.6047 C   0  0  0  0  0  0  0  0  0  0  0  0
  -21.2070  -12.3964   -3.5793 C   0  0  0  0  0  0  0  0  0  0  0  0
  -21.5688  -12.4659   -4.9235 C   0  0  0  0  0  0  0  0  0  0  0  0
  -22.9141  -12.3597   -5.2942 C   0  0  0  0  0  0  0  0  0  0  0  0
  -23.2999  -12.4163   -6.9807 Cl  0  0  0  0  0  0  0  0  0  0  0  0
  -30.5600   -6.3186   -6.0462 O   0  0  0  0  0  0  0  0  0  0  0  0
  -28.4126   -1.6750   -5.0287 C   0  0  0  0  0  0  0  0  0  0  0  0
  -29.3997   -1.9805   -4.0752 C   0  0  0  0  0  0  0  0  0  0  0  0
  -30.1643   -3.1392   -4.1292 C   0  0  0  0  0  0  0  0  0  0  0  0
  -30.9928   -3.4001   -3.1033 N   0  0  0  0  0  0  0  0  0  0  0  0
  -31.6605   -4.5706   -3.1024 C   0  0  0  0  0  0  0  0  0  0  0  0
  -31.5161   -5.5320   -4.0797 C   0  0  0  0  0  0  0  0  0  0  0  0
  -30.6616   -5.2663   -5.1465 C   0  0  0  0  0  0  0  0  0  0  0  0
  -30.0106   -4.0045   -5.2257 C   0  0  0  0  0  0  0  0  0  0  0  0
  -29.1980   -3.5566   -6.2905 C   0  0  0  0  0  0  0  0  0  0  0  0
  -28.3390   -2.4593   -6.1766 C   0  0  0  0  0  0  0  0  0  0  0  0
  -28.1573    0.6775   -4.8928 C   0  0  0  0  0  0  0  0  0  0  0  0
  -27.5543   -0.6186   -4.8719 O   0  0  0  0  0  0  0  0  0  0  0  0
  -27.5159   -2.3624   -7.2612 O   0  0  0  0  0  0  0  0  0  0  0  0
  -27.9789   -2.7441   -8.5440 C   0  0  0  0  0  0  0  0  0  0  0  0
 32 33  1  0  0  0
 33 22  1  0  0  0
 22 23  1  0  0  0
 22 31  2  0  0  0
 23 24  2  0  0  0
 24 25  1  0  0  0
 24 29  1  0  0  0
 25 26  2  0  0  0
 26 27  1  0  0  0
 27 28  2  0  0  0
 28 21  1  0  0  0
 28 29  1  0  0  0
 21  1  1  0  0  0
  1  2  1  0  0  0
  1  6  2  0  0  0
  2  3  2  0  0  0
  3  4  1  0  0  0
  4  7  1  0  0  0
  4  5  2  0  0  0
  7  8  1  0  0  0
  7 11  1  0  0  0
  8  9  2  0  0  0
  8 10  1  0  0  0
 10 13  1  0  0  0
 10 12  1  0  0  0
 13 14  1  0  0  0
 13 19  2  0  0  0
 14 15  1  0  0  0
 14 16  2  0  0  0
 16 17  1  0  0  0
 17 18  2  0  0  0
 18 19  1  0  0  0
 19 20  1  0  0  0
  5  6  1  0  0  0
 29 30  2  0  0  0
 30 31  1  0  0  0
 31 34  1  0  0  0
 34 35  1  0  0  0
M  END
> <minimizedAffinity>
-9.01751

$$$$
