CHEMBL219555


 40 46  0  0  0  0  0  0  0  0999 V2000
  -14.0726   -4.6582  -11.5860 N   0  0  0  0  0  0  0  0  0  0  0  0
  -14.0621   -5.9480  -12.1588 C   0  0  0  0  0  0  0  0  0  0  0  0
  -13.8672   -7.2339  -11.5945 C   0  0  0  0  0  0  0  0  0  0  0  0
  -13.8322   -8.3568  -12.4515 C   0  0  0  0  0  0  0  0  0  0  0  0
  -14.0116   -8.2249  -13.8328 C   0  0  0  0  0  0  0  0  0  0  0  0
  -14.1552   -6.9519  -14.3764 C   0  0  0  0  0  0  0  0  0  0  0  0
  -14.1510   -5.8181  -13.5455 C   0  0  0  0  0  0  0  0  0  0  0  0
  -14.1046   -4.4507  -13.7135 C   0  0  0  0  0  0  0  0  0  0  0  0
  -13.7600   -3.8388  -14.9269 C   0  0  0  0  0  0  0  0  0  0  0  0
  -13.2753   -2.5193  -14.8157 C   0  0  0  0  0  0  0  0  0  0  0  0
  -13.2754   -1.7832  -13.6181 C   0  0  0  0  0  0  0  0  0  0  0  0
  -14.2193   -2.2814  -12.6605 C   0  0  0  0  0  0  0  0  0  0  0  0
  -14.2311   -3.6928  -12.5836 C   0  0  0  0  0  0  0  0  0  0  0  0
  -15.5367   -1.3925  -12.6271 C   0  0  0  0  0  0  0  0  0  0  0  0
  -15.6205   -0.2955  -13.7731 C   0  0  0  0  0  0  0  0  0  0  0  0
  -14.3199    0.4272  -13.7644 C   0  0  0  0  0  0  0  0  0  0  0  0
  -14.1053    1.7163  -13.5046 N   0  0  0  0  0  0  0  0  0  0  0  0
  -12.7900    1.7310  -13.1682 N   0  0  0  0  0  0  0  0  0  0  0  0
  -12.1897    2.9491  -12.6813 C   0  0  0  0  0  0  0  0  0  0  0  0
  -12.2212    0.4809  -13.1210 C   0  0  0  0  0  0  0  0  0  0  0  0
  -13.1534   -0.3500  -13.6859 C   0  0  0  0  0  0  0  0  0  0  0  0
  -12.9576   -2.0694  -16.1506 C   0  0  0  0  0  0  0  0  0  0  0  0
  -12.5644   -1.0085  -16.6136 O   0  0  0  0  0  0  0  0  0  0  0  0
  -13.2814   -3.1485  -16.9646 N   0  0  0  0  0  0  0  0  0  0  0  0
  -13.7422   -4.3400  -16.2934 C   0  0  0  0  0  0  0  0  0  0  0  0
  -13.2253   -3.0429  -17.9664 H   0  0  0  0  0  0  0  0  0  0  0  0
  -14.0029   -9.2904  -14.7545 N   0  0  0  0  0  0  0  0  0  0  0  0
  -13.1225   -9.5118  -15.7927 C   0  0  0  0  0  0  0  0  0  0  0  0
  -12.1140   -8.8526  -16.0096 O   0  0  0  0  0  0  0  0  0  0  0  0
  -13.5608  -10.5677  -16.5860 N   0  0  0  0  0  0  0  0  0  0  0  0
  -14.6219  -10.0599  -14.5576 H   0  0  0  0  0  0  0  0  0  0  0  0
  -14.5593  -10.6772  -16.6813 H   0  0  0  0  0  0  0  0  0  0  0  0
  -12.8217  -10.9317  -17.6888 C   0  0  0  0  0  0  0  0  0  0  0  0
  -11.7401  -11.7648  -17.8311 C   0  0  0  0  0  0  0  0  0  0  0  0
  -11.2197  -11.7165  -19.1571 C   0  0  0  0  0  0  0  0  0  0  0  0
  -11.9359  -10.8536  -19.9604 C   0  0  0  0  0  0  0  0  0  0  0  0
  -13.2994  -10.2054  -19.1454 S   0  0  0  0  0  0  0  0  0  0  0  0
  -13.8087   -4.3899  -10.1747 C   0  0  0  0  0  0  0  0  0  0  0  0
  -12.2236   -3.3868   -8.4198 C   0  0  0  0  0  0  0  0  0  0  0  0
  -12.4239   -3.7920   -9.8731 C   0  0  0  0  0  0  0  0  0  0  0  0
 39 40  1  0  0  0
 40 38  1  0  0  0
 38  1  1  0  0  0
  1  2  1  0  0  0
  1 13  1  0  0  0
  2  3  1  0  0  0
  2  7  2  0  0  0
  3  4  2  0  0  0
  4  5  1  0  0  0
  5 27  1  0  0  0
  5  6  2  0  0  0
 27 28  1  0  0  0
 27 31  1  0  0  0
 28 29  2  0  0  0
 28 30  1  0  0  0
 30 33  1  0  0  0
 30 32  1  0  0  0
 33 34  2  0  0  0
 33 37  1  0  0  0
 34 35  1  0  0  0
 35 36  2  0  0  0
 36 37  1  0  0  0
  6  7  1  0  0  0
  7  8  1  0  0  0
  8  9  1  0  0  0
  8 13  2  0  0  0
  9 10  2  0  0  0
  9 25  1  0  0  0
 10 11  1  0  0  0
 10 22  1  0  0  0
 11 12  2  0  0  0
 11 21  1  0  0  0
 12 13  1  0  0  0
 12 14  1  0  0  0
 14 15  1  0  0  0
 15 16  1  0  0  0
 16 17  2  0  0  0
 16 21  1  0  0  0
 17 18  1  0  0  0
 18 19  1  0  0  0
 18 20  1  0  0  0
 20 21  2  0  0  0
 22 23  2  0  0  0
 22 24  1  0  0  0
 24 25  1  0  0  0
 24 26  1  0  0  0
M  END
> <minimizedAffinity>
-8.10339

$$$$
