CHEMBL452284


 35 38  0  0  0  0  0  0  0  0999 V2000
  -23.2153   -0.3337  -13.2236 C   0  0  0  0  0  0  0  0  0  0  0  0
  -22.9919   -0.8796  -11.9656 C   0  0  0  0  0  0  0  0  0  0  0  0
  -24.0093   -1.5788  -11.3145 C   0  0  0  0  0  0  0  0  0  0  0  0
  -25.2734   -1.7379  -11.8896 C   0  0  0  0  0  0  0  0  0  0  0  0
  -25.4870   -1.2100  -13.1671 C   0  0  0  0  0  0  0  0  0  0  0  0
  -24.4642   -0.5121  -13.8315 C   0  0  0  0  0  0  0  0  0  0  0  0
  -23.0395    2.6358  -13.3826 N   0  0  0  0  0  0  0  0  0  0  0  0
  -22.0959    1.7720  -13.9397 C   0  0  0  0  0  0  0  0  0  0  0  0
  -22.1410    0.4218  -13.8721 C   0  0  0  0  0  0  0  0  0  0  0  0
  -21.0457   -0.3034  -14.5929 C   0  0  0  0  0  0  0  0  0  0  0  0
  -20.0485    0.2263  -15.2338 N   0  0  0  0  0  0  0  0  0  0  0  0
  -20.0173    1.5910  -15.2438 C   0  0  0  0  0  0  0  0  0  0  0  0
  -19.1250    2.4774  -15.8021 C   0  0  0  0  0  0  0  0  0  0  0  0
  -19.6139    3.7482  -15.4706 C   0  0  0  0  0  0  0  0  0  0  0  0
  -20.7333    3.7035  -14.7472 N   0  0  0  0  0  0  0  0  0  0  0  0
  -21.0022    2.3675  -14.6252 N   0  0  0  0  0  0  0  0  0  0  0  0
  -23.5246    2.2685  -12.5706 H   0  0  0  0  0  0  0  0  0  0  0  0
  -22.6605    3.5782  -13.2604 H   0  0  0  0  0  0  0  0  0  0  0  0
  -26.3440   -2.4052  -11.2383 N   0  0  0  0  0  0  0  0  0  0  0  0
  -26.8028   -2.1124   -9.9716 C   0  0  0  0  0  0  0  0  0  0  0  0
  -26.3576   -1.2180   -9.2511 O   0  0  0  0  0  0  0  0  0  0  0  0
  -27.8290   -2.9493   -9.5477 N   0  0  0  0  0  0  0  0  0  0  0  0
  -26.9044   -3.0389  -11.7897 H   0  0  0  0  0  0  0  0  0  0  0  0
  -27.6787   -3.9250   -9.7783 H   0  0  0  0  0  0  0  0  0  0  0  0
  -28.3412   -2.7200   -8.2401 C   0  0  0  0  0  0  0  0  0  0  0  0
  -28.3880   -1.4219   -7.7129 C   0  0  0  0  0  0  0  0  0  0  0  0
  -28.6412   -1.2084   -6.3504 C   0  0  0  0  0  0  0  0  0  0  0  0
  -28.8752   -2.3211   -5.5257 C   0  0  0  0  0  0  0  0  0  0  0  0
  -28.8985   -3.6127   -6.0639 C   0  0  0  0  0  0  0  0  0  0  0  0
  -28.6525   -3.8027   -7.4211 C   0  0  0  0  0  0  0  0  0  0  0  0
  -28.6138   -5.0488   -7.9165 F   0  0  0  0  0  0  0  0  0  0  0  0
  -28.6119    0.1868   -5.7730 C   0  0  0  0  0  0  0  0  0  0  0  0
  -28.3555    1.1583   -6.6923 F   0  0  0  0  0  0  0  0  0  0  0  0
  -29.7990    0.5281   -5.1975 F   0  0  0  0  0  0  0  0  0  0  0  0
  -27.6712    0.3325   -4.7998 F   0  0  0  0  0  0  0  0  0  0  0  0
  7  8  1  0  0  0
  7 17  1  0  0  0
  7 18  1  0  0  0
  8  9  2  0  0  0
  8 16  1  0  0  0
  9  1  1  0  0  0
  9 10  1  0  0  0
  1  2  1  0  0  0
  1  6  2  0  0  0
  2  3  2  0  0  0
  3  4  1  0  0  0
  4 19  1  0  0  0
  4  5  2  0  0  0
 19 20  1  0  0  0
 19 23  1  0  0  0
 20 21  2  0  0  0
 20 22  1  0  0  0
 22 25  1  0  0  0
 22 24  1  0  0  0
 25 26  1  0  0  0
 25 30  2  0  0  0
 26 27  2  0  0  0
 27 32  1  0  0  0
 27 28  1  0  0  0
 32 33  1  0  0  0
 32 34  1  0  0  0
 32 35  1  0  0  0
 28 29  2  0  0  0
 29 30  1  0  0  0
 30 31  1  0  0  0
  5  6  1  0  0  0
 10 11  2  0  0  0
 11 12  1  0  0  0
 12 13  2  0  0  0
 12 16  1  0  0  0
 13 14  1  0  0  0
 14 15  2  0  0  0
 15 16  1  0  0  0
M  END
> <minimizedAffinity>
-11.14807

$$$$
