CHEMBL1087349


 31 35  0  0  0  0  0  0  0  0999 V2000
  -27.7873   -1.6459   -8.0187 C   0  0  0  0  0  0  0  0  0  0  0  0
  -27.4159   -2.9091   -8.0895 N   0  0  0  0  0  0  0  0  0  0  0  0
  -27.2340   -3.1898   -9.4306 N   0  0  0  0  0  0  0  0  0  0  0  0
  -27.5485   -2.0998  -10.0973 C   0  0  0  0  0  0  0  0  0  0  0  0
  -27.8931   -1.0708   -9.2651 O   0  0  0  0  0  0  0  0  0  0  0  0
  -28.8601    0.9963   -4.8275 C   0  0  0  0  0  0  0  0  0  0  0  0
  -28.7726    1.4576   -6.1308 C   0  0  0  0  0  0  0  0  0  0  0  0
  -28.4150    0.5745   -7.1479 C   0  0  0  0  0  0  0  0  0  0  0  0
  -28.1085   -0.7790   -6.8835 C   0  0  0  0  0  0  0  0  0  0  0  0
  -28.0939   -1.2233   -5.5354 C   0  0  0  0  0  0  0  0  0  0  0  0
  -28.5329   -0.3282   -4.5376 C   0  0  0  0  0  0  0  0  0  0  0  0
  -27.7158   -2.5383   -5.2018 N   0  0  0  0  0  0  0  0  0  0  0  0
  -27.8725   -3.1803   -5.9774 H   0  0  0  0  0  0  0  0  0  0  0  0
  -28.1767   -3.0836   -3.9262 C   0  0  0  0  0  0  0  0  0  0  0  0
  -29.4146   -3.9358   -4.0725 C   0  0  0  0  0  0  0  0  0  0  0  0
  -29.4097   -5.1503   -4.7650 C   0  0  0  0  0  0  0  0  0  0  0  0
  -30.5600   -5.9252   -4.7631 C   0  0  0  0  0  0  0  0  0  0  0  0
  -31.6979   -5.5863   -4.1187 N   0  0  0  0  0  0  0  0  0  0  0  0
  -31.6820   -4.4196   -3.4431 C   0  0  0  0  0  0  0  0  0  0  0  0
  -30.5837   -3.5747   -3.3895 C   0  0  0  0  0  0  0  0  0  0  0  0
  -27.4864   -1.8986  -11.4288 N   0  0  0  0  0  0  0  0  0  0  0  0
  -28.3823   -1.7034  -11.8621 H   0  0  0  0  0  0  0  0  0  0  0  0
  -26.3893   -1.5692  -12.2516 C   0  0  0  0  0  0  0  0  0  0  0  0
  -26.3700   -1.7500  -13.6521 C   0  0  0  0  0  0  0  0  0  0  0  0
  -25.2642   -1.3760  -14.4298 C   0  0  0  0  0  0  0  0  0  0  0  0
  -24.1912   -0.7986  -13.7912 C   0  0  0  0  0  0  0  0  0  0  0  0
  -24.1923   -0.5978  -12.4353 C   0  0  0  0  0  0  0  0  0  0  0  0
  -25.2664   -0.9647  -11.6464 C   0  0  0  0  0  0  0  0  0  0  0  0
  -23.0450   -0.0115  -11.9974 O   0  0  0  0  0  0  0  0  0  0  0  0
  -22.3533    0.1951  -13.2480 C   0  0  0  0  0  0  0  0  0  0  0  0
  -23.0472   -0.3650  -14.3823 O   0  0  0  0  0  0  0  0  0  0  0  0
  6  7  1  0  0  0
  6 11  2  0  0  0
  7  8  2  0  0  0
  8  9  1  0  0  0
  9  1  1  0  0  0
  9 10  2  0  0  0
  1  2  2  0  0  0
  1  5  1  0  0  0
  2  3  1  0  0  0
  3  4  2  0  0  0
  4 21  1  0  0  0
  4  5  1  0  0  0
 21 23  1  0  0  0
 21 22  1  0  0  0
 23 24  1  0  0  0
 23 28  2  0  0  0
 24 25  2  0  0  0
 25 26  1  0  0  0
 26 27  2  0  0  0
 26 31  1  0  0  0
 27 28  1  0  0  0
 27 29  1  0  0  0
 29 30  1  0  0  0
 30 31  1  0  0  0
 10 12  1  0  0  0
 10 11  1  0  0  0
 12 14  1  0  0  0
 12 13  1  0  0  0
 14 15  1  0  0  0
 15 16  1  0  0  0
 15 20  2  0  0  0
 16 17  2  0  0  0
 17 18  1  0  0  0
 18 19  2  0  0  0
 19 20  1  0  0  0
M  END
> <minimizedAffinity>
-9.66710

$$$$
