CHEMBL3403513


 22 25  0  0  0  0  0  0  0  0999 V2000
  -24.2057   12.6561  -21.4683 C   0  0  0  0  0  0  0  0  0  0  0  0
  -23.7693   12.4010  -20.0567 C   0  0  0  0  0  0  0  0  0  0  0  0
  -22.4904   12.0228  -19.8737 N   0  0  0  0  0  0  0  0  0  0  0  0
  -21.9920   11.7752  -18.6248 C   0  0  0  0  0  0  0  0  0  0  0  0
  -22.9058   11.8992  -17.5589 C   0  0  0  0  0  0  0  0  0  0  0  0
  -22.9177   11.6907  -16.1491 C   0  0  0  0  0  0  0  0  0  0  0  0
  -24.1828   12.0067  -15.7087 C   0  0  0  0  0  0  0  0  0  0  0  0
  -24.8213   12.0130  -14.3779 C   0  0  0  0  0  0  0  0  0  0  0  0
  -24.9633   12.3740  -16.7597 O   0  0  0  0  0  0  0  0  0  0  0  0
  -24.1977   12.2954  -17.8857 C   0  0  0  0  0  0  0  0  0  0  0  0
  -24.6872   12.5663  -19.1007 N   0  0  0  0  0  0  0  0  0  0  0  0
  -20.6365   11.4039  -18.5226 N   0  0  0  0  0  0  0  0  0  0  0  0
  -20.1655   10.8069  -17.2760 C   0  0  0  0  0  0  0  0  0  0  0  0
  -19.7162   11.3856  -19.6028 C   0  0  0  0  0  0  0  0  0  0  0  0
  -20.0687   11.8336  -20.8985 C   0  0  0  0  0  0  0  0  0  0  0  0
  -19.1419   11.8696  -21.9473 C   0  0  0  0  0  0  0  0  0  0  0  0
  -17.8570   11.4495  -21.6910 C   0  0  0  0  0  0  0  0  0  0  0  0
  -17.4845   10.9847  -20.4480 C   0  0  0  0  0  0  0  0  0  0  0  0
  -18.3949   10.9370  -19.4034 C   0  0  0  0  0  0  0  0  0  0  0  0
  -16.0534   10.6231  -20.4536 C   0  0  0  0  0  0  0  0  0  0  0  0
  -15.7103   10.8979  -21.9205 C   0  0  0  0  0  0  0  0  0  0  0  0
  -16.8492   11.4602  -22.6126 O   0  0  0  0  0  0  0  0  0  0  0  0
  1  2  1  0  0  0
  2  3  1  0  0  0
  2 11  2  0  0  0
  3  4  2  0  0  0
  4 12  1  0  0  0
  4  5  1  0  0  0
 12 13  1  0  0  0
 12 14  1  0  0  0
 14 15  1  0  0  0
 14 19  2  0  0  0
 15 16  2  0  0  0
 16 17  1  0  0  0
 17 18  2  0  0  0
 17 22  1  0  0  0
 18 19  1  0  0  0
 18 20  1  0  0  0
 20 21  1  0  0  0
 21 22  1  0  0  0
  5  6  1  0  0  0
  5 10  2  0  0  0
  6  7  2  0  0  0
  7  8  1  0  0  0
  7  9  1  0  0  0
  9 10  1  0  0  0
 10 11  1  0  0  0
M  END
> <minimizedAffinity>
-2.66621

$$$$
