CHEMBL3904294


 38 42  0  0  0  0  0  0  0  0999 V2000
  -16.7818    1.9457  -15.2317 N   0  0  0  0  0  0  0  0  0  0  0  0
  -18.2355    1.8533  -15.2471 C   0  0  0  0  0  0  0  0  0  0  0  0
  -18.8863    3.0424  -15.5339 C   0  0  0  0  0  0  0  0  0  0  0  0
  -20.1841    3.2644  -15.1151 C   0  0  0  0  0  0  0  0  0  0  0  0
  -20.9603    2.2829  -14.5630 C   0  0  0  0  0  0  0  0  0  0  0  0
  -22.1141    2.7291  -14.0646 N   0  0  0  0  0  0  0  0  0  0  0  0
  -23.0368    1.8156  -13.7434 C   0  0  0  0  0  0  0  0  0  0  0  0
  -22.8541    0.4746  -14.0007 C   0  0  0  0  0  0  0  0  0  0  0  0
  -21.5937   -0.0036  -14.3492 N   0  0  0  0  0  0  0  0  0  0  0  0
  -20.5487    0.9285  -14.5946 C   0  0  0  0  0  0  0  0  0  0  0  0
  -19.0971    0.7534  -14.8716 C   0  0  0  0  0  0  0  0  0  0  0  0
  -24.1094   -0.2833  -14.1779 C   0  0  0  0  0  0  0  0  0  0  0  0
  -24.7862   -0.8186  -15.3015 C   0  0  0  0  0  0  0  0  0  0  0  0
  -25.8165   -1.6206  -14.9756 N   0  0  0  0  0  0  0  0  0  0  0  0
  -25.8130   -1.6247  -13.6278 N   0  0  0  0  0  0  0  0  0  0  0  0
  -24.7321   -0.9447  -13.1199 C   0  0  0  0  0  0  0  0  0  0  0  0
  -26.9665   -2.1028  -12.8574 C   0  0  0  0  0  0  0  0  0  0  0  0
  -27.1692   -1.2095  -11.6313 C   0  0  0  0  0  0  0  0  0  0  0  0
  -28.2865   -2.2390  -13.6266 C   0  0  0  0  0  0  0  0  0  0  0  0
  -14.4688    3.5421  -17.7265 C   0  0  0  0  0  0  0  0  0  0  0  0
  -13.7599    2.4377  -18.1999 C   0  0  0  0  0  0  0  0  0  0  0  0
  -14.0834    1.1618  -17.7468 C   0  0  0  0  0  0  0  0  0  0  0  0
  -15.1250    0.9941  -16.8178 C   0  0  0  0  0  0  0  0  0  0  0  0
  -15.8712    2.0756  -16.3169 C   0  0  0  0  0  0  0  0  0  0  0  0
  -15.5313    3.3522  -16.8128 C   0  0  0  0  0  0  0  0  0  0  0  0
  -14.8260    5.3881  -19.2142 C   0  0  0  0  0  0  0  0  0  0  0  0
  -14.1807    4.8449  -18.0600 O   0  0  0  0  0  0  0  0  0  0  0  0
  -13.4361    0.0067  -18.1021 O   0  0  0  0  0  0  0  0  0  0  0  0
  -12.5678    0.0669  -19.2296 C   0  0  0  0  0  0  0  0  0  0  0  0
  -16.2657    1.1854  -14.0144 C   0  0  0  0  0  0  0  0  0  0  0  0
  -16.2935   -0.3646  -13.9789 C   0  0  0  0  0  0  0  0  0  0  0  0
  -15.1739   -1.1130  -13.2353 C   0  0  0  0  0  0  0  0  0  0  0  0
  -15.6038   -2.4741  -12.8565 N   0  0  0  0  0  0  0  0  0  0  0  0
  -15.7335   -3.5546  -13.8046 C   0  0  0  0  0  0  0  0  0  0  0  0
  -16.5867   -4.5796  -13.0797 C   0  0  0  0  0  0  0  0  0  0  0  0
  -16.2347   -4.3747  -11.6133 C   0  0  0  0  0  0  0  0  0  0  0  0
  -15.8634   -2.9091  -11.5608 C   0  0  0  0  0  0  0  0  0  0  0  0
  -15.7749   -2.2408  -10.5393 O   0  0  0  0  0  0  0  0  0  0  0  0
 26 27  1  0  0  0
 27 20  1  0  0  0
 20 21  1  0  0  0
 20 25  2  0  0  0
 21 22  2  0  0  0
 22 28  1  0  0  0
 22 23  1  0  0  0
 28 29  1  0  0  0
 23 24  2  0  0  0
 24  1  1  0  0  0
 24 25  1  0  0  0
  1 30  1  0  0  0
  1  2  1  0  0  0
 30 31  1  0  0  0
 31 32  1  0  0  0
 32 33  1  0  0  0
 33 34  1  0  0  0
 33 37  1  0  0  0
 34 35  1  0  0  0
 35 36  1  0  0  0
 36 37  1  0  0  0
 37 38  2  0  0  0
  2  3  1  0  0  0
  2 11  2  0  0  0
  3  4  2  0  0  0
  4  5  1  0  0  0
  5  6  1  0  0  0
  5 10  2  0  0  0
  6  7  2  0  0  0
  7  8  1  0  0  0
  8 12  1  0  0  0
  8  9  2  0  0  0
 12 13  1  0  0  0
 12 16  2  0  0  0
 13 14  2  0  0  0
 14 15  1  0  0  0
 15 17  1  0  0  0
 15 16  1  0  0  0
 17 18  1  0  0  0
 17 19  1  0  0  0
  9 10  1  0  0  0
 10 11  1  0  0  0
M  END
> <minimizedAffinity>
-9.74451

$$$$
