CHEMBL185592


 37 42  0  0  0  0  0  0  0  0999 V2000
  -14.0014    1.1587  -16.0944 C   0  0  0  0  0  0  0  0  0  0  0  0
  -13.3548    0.5848  -15.0246 C   0  0  0  0  0  0  0  0  0  0  0  0
  -12.7448   -0.5496  -15.4822 N   0  0  0  0  0  0  0  0  0  0  0  0
  -13.0095   -0.7357  -16.8264 C   0  0  0  0  0  0  0  0  0  0  0  0
  -12.6429   -1.7972  -17.6774 C   0  0  0  0  0  0  0  0  0  0  0  0
  -13.1537   -1.7467  -18.9842 C   0  0  0  0  0  0  0  0  0  0  0  0
  -13.8693   -0.6427  -19.4490 C   0  0  0  0  0  0  0  0  0  0  0  0
  -14.1825    0.4148  -18.5914 C   0  0  0  0  0  0  0  0  0  0  0  0
  -13.7800    0.3498  -17.2431 C   0  0  0  0  0  0  0  0  0  0  0  0
  -12.2318   -1.2219  -14.9224 H   0  0  0  0  0  0  0  0  0  0  0  0
  -16.0544    4.7725  -15.7946 O   0  0  0  0  0  0  0  0  0  0  0  0
  -16.7265    3.7512  -15.6338 C   0  0  0  0  0  0  0  0  0  0  0  0
  -18.0726    3.8950  -15.4809 N   0  0  0  0  0  0  0  0  0  0  0  0
  -19.0221    2.8934  -15.2763 C   0  0  0  0  0  0  0  0  0  0  0  0
  -20.3664    3.2772  -15.1974 C   0  0  0  0  0  0  0  0  0  0  0  0
  -21.3600    2.3226  -14.9805 C   0  0  0  0  0  0  0  0  0  0  0  0
  -21.0139    0.9831  -14.8401 C   0  0  0  0  0  0  0  0  0  0  0  0
  -19.6744    0.6010  -14.9197 C   0  0  0  0  0  0  0  0  0  0  0  0
  -18.6675    1.5526  -15.1390 C   0  0  0  0  0  0  0  0  0  0  0  0
  -16.9990    0.9764  -15.1954 S   0  0  0  0  0  0  0  0  0  0  0  0
  -16.1068    2.3858  -15.6396 C   0  0  0  0  0  0  0  0  0  0  0  0
  -14.8103    2.3279  -15.9958 C   0  0  0  0  0  0  0  0  0  0  0  0
  -18.3809    4.8576  -15.5387 H   0  0  0  0  0  0  0  0  0  0  0  0
  -11.8551   -2.9266  -17.1032 C   0  0  0  0  0  0  0  0  0  0  0  0
  -10.6981   -2.6655  -16.7579 O   0  0  0  0  0  0  0  0  0  0  0  0
  -12.3650   -4.2309  -17.0115 N   0  0  0  0  0  0  0  0  0  0  0  0
  -11.5807   -5.1719  -16.2137 C   0  0  0  0  0  0  0  0  0  0  0  0
  -11.7367   -6.6146  -16.6663 C   0  0  0  0  0  0  0  0  0  0  0  0
  -13.1968   -7.0837  -16.8149 C   0  0  0  0  0  0  0  0  0  0  0  0
  -13.9296   -6.0741  -17.7105 C   0  0  0  0  0  0  0  0  0  0  0  0
  -13.7409   -4.6131  -17.3203 C   0  0  0  0  0  0  0  0  0  0  0  0
  -13.9347   -7.5025  -15.5931 N   0  0  0  0  0  0  0  0  0  0  0  0
  -13.0568   -8.2278  -14.6616 C   0  0  0  0  0  0  0  0  0  0  0  0
  -13.7741   -8.7314  -13.4110 C   0  0  0  0  0  0  0  0  0  0  0  0
  -14.4527   -7.5752  -12.6962 C   0  0  0  0  0  0  0  0  0  0  0  0
  -15.4483   -6.9362  -13.6476 C   0  0  0  0  0  0  0  0  0  0  0  0
  -14.7734   -6.4913  -14.9485 C   0  0  0  0  0  0  0  0  0  0  0  0
 11 12  2  0  0  0
 12 13  1  0  0  0
 12 21  1  0  0  0
 13 14  1  0  0  0
 13 23  1  0  0  0
 14 15  1  0  0  0
 14 19  2  0  0  0
 15 16  2  0  0  0
 16 17  1  0  0  0
 17 18  2  0  0  0
 18 19  1  0  0  0
 19 20  1  0  0  0
 20 21  1  0  0  0
 21 22  2  0  0  0
 22  1  1  0  0  0
  1  2  2  0  0  0
  1  9  1  0  0  0
  2  3  1  0  0  0
  3  4  1  0  0  0
  3 10  1  0  0  0
  4  5  1  0  0  0
  4  9  2  0  0  0
  5 24  1  0  0  0
  5  6  2  0  0  0
 24 25  2  0  0  0
 24 26  1  0  0  0
 26 27  1  0  0  0
 26 31  1  0  0  0
 27 28  1  0  0  0
 28 29  1  0  0  0
 29 32  1  0  0  0
 29 30  1  0  0  0
 32 33  1  0  0  0
 32 37  1  0  0  0
 33 34  1  0  0  0
 34 35  1  0  0  0
 35 36  1  0  0  0
 36 37  1  0  0  0
 30 31  1  0  0  0
  6  7  1  0  0  0
  7  8  2  0  0  0
  8  9  1  0  0  0
M  END
> <minimizedAffinity>
-9.05589

$$$$
