CHEMBL1255098


 37 40  0  0  0  0  0  0  0  0999 V2000
  -29.0976   -4.7092   -6.1876 C   0  0  0  0  0  0  0  0  0  0  0  0
  -28.9735   -4.9781   -7.5517 C   0  0  0  0  0  0  0  0  0  0  0  0
  -28.4795   -4.0111   -8.4257 C   0  0  0  0  0  0  0  0  0  0  0  0
  -28.0651   -2.7598   -7.9635 C   0  0  0  0  0  0  0  0  0  0  0  0
  -28.1339   -2.5171   -6.5793 C   0  0  0  0  0  0  0  0  0  0  0  0
  -27.5881   -1.0136   -5.9134 Cl  0  0  0  0  0  0  0  0  0  0  0  0
  -28.6436   -3.4855   -5.6964 C   0  0  0  0  0  0  0  0  0  0  0  0
  -27.5592   -1.7611   -8.8414 N   0  0  0  0  0  0  0  0  0  0  0  0
  -26.9579   -1.9903  -10.0680 C   0  0  0  0  0  0  0  0  0  0  0  0
  -26.8848   -3.0792  -10.6248 O   0  0  0  0  0  0  0  0  0  0  0  0
  -26.3812   -0.8397  -10.5844 N   0  0  0  0  0  0  0  0  0  0  0  0
  -27.8208   -0.8068   -8.6265 H   0  0  0  0  0  0  0  0  0  0  0  0
  -26.0149   -0.2094   -9.8857 H   0  0  0  0  0  0  0  0  0  0  0  0
  -25.6989   -0.8727  -11.8251 C   0  0  0  0  0  0  0  0  0  0  0  0
  -26.2931   -1.5420  -12.8948 C   0  0  0  0  0  0  0  0  0  0  0  0
  -25.6718   -1.5433  -14.1469 C   0  0  0  0  0  0  0  0  0  0  0  0
  -24.4340   -0.9271  -14.3205 C   0  0  0  0  0  0  0  0  0  0  0  0
  -23.8031   -0.2896  -13.2441 C   0  0  0  0  0  0  0  0  0  0  0  0
  -24.4592   -0.2458  -11.9994 C   0  0  0  0  0  0  0  0  0  0  0  0
  -22.4401    0.3406  -13.4000 C   0  0  0  0  0  0  0  0  0  0  0  0
  -21.6891   -0.2336  -14.3836 F   0  0  0  0  0  0  0  0  0  0  0  0
  -22.4931    1.6663  -13.7031 F   0  0  0  0  0  0  0  0  0  0  0  0
  -21.6898    0.2439  -12.2661 F   0  0  0  0  0  0  0  0  0  0  0  0
  -29.5897   -5.6273   -5.2811 O   0  0  0  0  0  0  0  0  0  0  0  0
  -31.7275   -7.1498   -6.8602 C   0  0  0  0  0  0  0  0  0  0  0  0
  -30.8111   -8.2125   -6.4940 N   0  0  0  0  0  0  0  0  0  0  0  0
  -30.9622   -9.5592   -6.7834 C   0  0  0  0  0  0  0  0  0  0  0  0
  -29.8447  -10.2062   -6.2845 C   0  0  0  0  0  0  0  0  0  0  0  0
  -29.0047   -9.2396   -5.6963 C   0  0  0  0  0  0  0  0  0  0  0  0
  -27.8057   -9.4182   -5.1048 N   0  0  0  0  0  0  0  0  0  0  0  0
  -27.2596   -8.2821   -4.6581 C   0  0  0  0  0  0  0  0  0  0  0  0
  -27.7741   -7.0445   -4.7207 N   0  0  0  0  0  0  0  0  0  0  0  0
  -28.9997   -6.8876   -5.2708 C   0  0  0  0  0  0  0  0  0  0  0  0
  -29.6241   -8.0036   -5.8178 C   0  0  0  0  0  0  0  0  0  0  0  0
  -32.1058  -10.1451   -7.5299 C   0  0  0  0  0  0  0  0  0  0  0  0
  -31.9326   -9.8115   -8.8958 O   0  0  0  0  0  0  0  0  0  0  0  0
  -32.0956   -8.8549   -8.9665 H   0  0  0  0  0  0  0  0  0  0  0  0
 25 26  1  0  0  0
 26 27  1  0  0  0
 26 34  1  0  0  0
 27 35  1  0  0  0
 27 28  2  0  0  0
 35 36  1  0  0  0
 36 37  1  0  0  0
 28 29  1  0  0  0
 29 30  1  0  0  0
 29 34  2  0  0  0
 30 31  2  0  0  0
 31 32  1  0  0  0
 32 33  2  0  0  0
 33 24  1  0  0  0
 33 34  1  0  0  0
 24  1  1  0  0  0
  1  2  1  0  0  0
  1  7  2  0  0  0
  2  3  2  0  0  0
  3  4  1  0  0  0
  4  8  1  0  0  0
  4  5  2  0  0  0
  8  9  1  0  0  0
  8 12  1  0  0  0
  9 10  2  0  0  0
  9 11  1  0  0  0
 11 14  1  0  0  0
 11 13  1  0  0  0
 14 15  1  0  0  0
 14 19  2  0  0  0
 15 16  2  0  0  0
 16 17  1  0  0  0
 17 18  2  0  0  0
 18 20  1  0  0  0
 18 19  1  0  0  0
 20 21  1  0  0  0
 20 22  1  0  0  0
 20 23  1  0  0  0
  5  6  1  0  0  0
  5  7  1  0  0  0
M  END
> <minimizedAffinity>
-10.03654

$$$$
