CHEMBL3891951


 33 37  0  0  0  0  0  0  0  0999 V2000
  -23.8976   -0.5379  -13.0560 C   0  0  0  0  0  0  0  0  0  0  0  0
  -24.0693   -0.8864  -14.4016 C   0  0  0  0  0  0  0  0  0  0  0  0
  -25.2886   -1.3467  -14.8871 C   0  0  0  0  0  0  0  0  0  0  0  0
  -26.3183   -1.5029  -13.9627 C   0  0  0  0  0  0  0  0  0  0  0  0
  -27.6373   -1.7917  -14.1509 N   0  0  0  0  0  0  0  0  0  0  0  0
  -28.2979   -2.0703  -13.0292 N   0  0  0  0  0  0  0  0  0  0  0  0
  -27.4581   -1.6810  -12.0542 C   0  0  0  0  0  0  0  0  0  0  0  0
  -26.1833   -1.2791  -12.5937 C   0  0  0  0  0  0  0  0  0  0  0  0
  -24.9541   -0.7312  -12.1310 C   0  0  0  0  0  0  0  0  0  0  0  0
  -28.1514   -1.7844  -15.0224 H   0  0  0  0  0  0  0  0  0  0  0  0
  -22.0472   -0.1510  -11.6721 O   0  0  0  0  0  0  0  0  0  0  0  0
  -22.5968    0.1238  -12.7490 C   0  0  0  0  0  0  0  0  0  0  0  0
  -21.8945    1.0726  -13.6428 C   0  0  0  0  0  0  0  0  0  0  0  0
  -22.5154    2.3045  -13.8961 C   0  0  0  0  0  0  0  0  0  0  0  0
  -21.9069    3.2385  -14.7260 C   0  0  0  0  0  0  0  0  0  0  0  0
  -20.6657    2.9550  -15.2925 C   0  0  0  0  0  0  0  0  0  0  0  0
  -20.0342    1.7280  -15.0648 C   0  0  0  0  0  0  0  0  0  0  0  0
  -20.6798    0.7693  -14.2683 C   0  0  0  0  0  0  0  0  0  0  0  0
  -18.7526    1.4058  -15.5664 N   0  0  0  0  0  0  0  0  0  0  0  0
  -17.6321    2.2100  -15.5345 C   0  0  0  0  0  0  0  0  0  0  0  0
  -17.5714    3.3653  -15.1398 O   0  0  0  0  0  0  0  0  0  0  0  0
  -18.6355    0.4735  -15.9376 H   0  0  0  0  0  0  0  0  0  0  0  0
  -16.3604    1.5999  -16.0248 C   0  0  0  0  0  0  0  0  0  0  0  0
  -15.4500    0.9036  -15.0414 C   0  0  0  0  0  0  0  0  0  0  0  0
  -14.9578    2.1026  -15.8002 C   0  0  0  0  0  0  0  0  0  0  0  0
  -27.8933   -1.6155  -10.6932 C   0  0  0  0  0  0  0  0  0  0  0  0
  -27.2258   -2.1622   -9.6539 C   0  0  0  0  0  0  0  0  0  0  0  0
  -27.8933   -2.3829   -8.3675 C   0  0  0  0  0  0  0  0  0  0  0  0
  -28.8333   -3.3855   -8.1581 C   0  0  0  0  0  0  0  0  0  0  0  0
  -29.4463   -3.4687   -6.9046 C   0  0  0  0  0  0  0  0  0  0  0  0
  -29.1307   -2.5365   -5.9206 C   0  0  0  0  0  0  0  0  0  0  0  0
  -28.2046   -1.5578   -6.2238 C   0  0  0  0  0  0  0  0  0  0  0  0
  -27.5748   -1.4745   -7.4103 N   0  0  0  0  0  0  0  0  0  0  0  0
 11 12  2  0  0  0
 12 13  1  0  0  0
 12  1  1  0  0  0
 13 14  1  0  0  0
 13 18  2  0  0  0
 14 15  2  0  0  0
 15 16  1  0  0  0
 16 17  2  0  0  0
 17 19  1  0  0  0
 17 18  1  0  0  0
 19 20  1  0  0  0
 19 22  1  0  0  0
 20 21  2  0  0  0
 20 23  1  0  0  0
 23 24  1  0  0  0
 23 25  1  0  0  0
 24 25  1  0  0  0
  1  2  1  0  0  0
  1  9  2  0  0  0
  2  3  2  0  0  0
  3  4  1  0  0  0
  4  5  1  0  0  0
  4  8  2  0  0  0
  5  6  1  0  0  0
  5 10  1  0  0  0
  6  7  2  0  0  0
  7 26  1  0  0  0
  7  8  1  0  0  0
 26 27  2  0  0  0
 27 28  1  0  0  0
 28 29  1  0  0  0
 28 33  2  0  0  0
 29 30  2  0  0  0
 30 31  1  0  0  0
 31 32  2  0  0  0
 32 33  1  0  0  0
  8  9  1  0  0  0
M  END
> <minimizedAffinity>
-10.80804

$$$$
