CHEMBL4066684


 37 41  0  0  0  0  0  0  0  0999 V2000
  -28.7880   -8.5116   -7.7657 C   0  0  0  0  0  0  0  0  0  0  0  0
  -29.9015   -8.6044   -8.2594 O   0  0  0  0  0  0  0  0  0  0  0  0
  -28.3119   -7.4572   -6.9963 N   0  0  0  0  0  0  0  0  0  0  0  0
  -27.3313   -7.5221   -6.7338 H   0  0  0  0  0  0  0  0  0  0  0  0
  -28.8044  -10.1200  -10.3944 C   0  0  0  0  0  0  0  0  0  0  0  0
  -27.7527  -10.3224   -9.3525 C   0  0  0  0  0  0  0  0  0  0  0  0
  -26.7562  -11.1900   -9.5464 C   0  0  0  0  0  0  0  0  0  0  0  0
  -25.7117  -11.4438   -8.5405 C   0  0  0  0  0  0  0  0  0  0  0  0
  -24.8567  -12.2780   -8.8314 O   0  0  0  0  0  0  0  0  0  0  0  0
  -25.8425  -10.7404   -7.3407 N   0  0  0  0  0  0  0  0  0  0  0  0
  -26.8598   -9.8246   -7.0970 N   0  0  0  0  0  0  0  0  0  0  0  0
  -27.7344   -9.6098   -8.0410 C   0  0  0  0  0  0  0  0  0  0  0  0
  -24.9121  -10.8899   -6.2623 C   0  0  0  0  0  0  0  0  0  0  0  0
  -25.2659  -11.5699   -5.0773 C   0  0  0  0  0  0  0  0  0  0  0  0
  -24.3533  -11.7060   -4.0268 C   0  0  0  0  0  0  0  0  0  0  0  0
  -23.0821  -11.1708   -4.1510 C   0  0  0  0  0  0  0  0  0  0  0  0
  -22.2051  -11.2827   -3.1411 F   0  0  0  0  0  0  0  0  0  0  0  0
  -22.7055  -10.4952   -5.3022 C   0  0  0  0  0  0  0  0  0  0  0  0
  -23.6094  -10.3710   -6.3638 C   0  0  0  0  0  0  0  0  0  0  0  0
  -29.0030   -6.2545   -6.7163 C   0  0  0  0  0  0  0  0  0  0  0  0
  -29.0751   -5.1865   -7.6168 C   0  0  0  0  0  0  0  0  0  0  0  0
  -29.6410   -3.9606   -7.2427 C   0  0  0  0  0  0  0  0  0  0  0  0
  -30.0908   -3.7645   -5.9357 C   0  0  0  0  0  0  0  0  0  0  0  0
  -30.1404   -4.8673   -5.0850 C   0  0  0  0  0  0  0  0  0  0  0  0
  -30.6642   -4.7423   -3.8563 F   0  0  0  0  0  0  0  0  0  0  0  0
  -29.6120   -6.1069   -5.4665 C   0  0  0  0  0  0  0  0  0  0  0  0
  -30.4937   -2.5462   -5.4235 O   0  0  0  0  0  0  0  0  0  0  0  0
  -29.5563   -1.5374   -5.3033 C   0  0  0  0  0  0  0  0  0  0  0  0
  -28.3108   -1.7060   -4.6837 C   0  0  0  0  0  0  0  0  0  0  0  0
  -27.3728   -0.6853   -4.7537 C   0  0  0  0  0  0  0  0  0  0  0  0
  -27.5389    0.4884   -5.4002 N   0  0  0  0  0  0  0  0  0  0  0  0
  -28.7963    0.6564   -5.8442 C   0  0  0  0  0  0  0  0  0  0  0  0
  -29.2509    1.7689   -6.4960 N   0  0  0  0  0  0  0  0  0  0  0  0
  -30.6224    1.7579   -6.4916 C   0  0  0  0  0  0  0  0  0  0  0  0
  -31.0175    0.4750   -6.1662 C   0  0  0  0  0  0  0  0  0  0  0  0
  -29.8548   -0.2430   -5.7639 C   0  0  0  0  0  0  0  0  0  0  0  0
  -28.6519    2.5060   -6.8388 H   0  0  0  0  0  0  0  0  0  0  0  0
  5  6  1  0  0  0
  6  7  2  0  0  0
  6 12  1  0  0  0
  7  8  1  0  0  0
  8  9  2  0  0  0
  8 10  1  0  0  0
 10 13  1  0  0  0
 10 11  1  0  0  0
 13 14  1  0  0  0
 13 19  2  0  0  0
 14 15  2  0  0  0
 15 16  1  0  0  0
 16 17  1  0  0  0
 16 18  2  0  0  0
 18 19  1  0  0  0
 11 12  2  0  0  0
 12  1  1  0  0  0
  1  2  2  0  0  0
  1  3  1  0  0  0
  3 20  1  0  0  0
  3  4  1  0  0  0
 20 21  1  0  0  0
 20 26  2  0  0  0
 21 22  2  0  0  0
 22 23  1  0  0  0
 23 27  1  0  0  0
 23 24  2  0  0  0
 27 28  1  0  0  0
 28 29  1  0  0  0
 28 36  2  0  0  0
 29 30  2  0  0  0
 30 31  1  0  0  0
 31 32  2  0  0  0
 32 33  1  0  0  0
 32 36  1  0  0  0
 33 34  1  0  0  0
 33 37  1  0  0  0
 34 35  2  0  0  0
 35 36  1  0  0  0
 24 25  1  0  0  0
 24 26  1  0  0  0
M  END
> <minimizedAffinity>
-9.27703

$$$$
