CHEMBL195964


 30 34  0  0  0  0  0  0  0  0999 V2000
  -29.3391   -7.3377   -7.1065 C   0  0  0  0  0  0  0  0  0  0  0  0
  -28.6631   -7.5294   -5.9008 C   0  0  0  0  0  0  0  0  0  0  0  0
  -28.3426   -6.4515   -5.0728 C   0  0  0  0  0  0  0  0  0  0  0  0
  -28.5844   -5.1329   -5.4676 C   0  0  0  0  0  0  0  0  0  0  0  0
  -29.2231   -4.9265   -6.6911 C   0  0  0  0  0  0  0  0  0  0  0  0
  -29.6245   -6.0151   -7.4807 C   0  0  0  0  0  0  0  0  0  0  0  0
  -32.1457   -8.7857   -6.9241 C   0  0  0  0  0  0  0  0  0  0  0  0
  -30.9807   -9.0968   -7.8166 C   0  0  0  0  0  0  0  0  0  0  0  0
  -31.1824  -10.3980   -8.9095 S   0  0  0  0  0  0  0  0  0  0  0  0
  -29.6609  -10.1569   -9.6021 C   0  0  0  0  0  0  0  0  0  0  0  0
  -29.2833  -10.9406  -10.6248 N   0  0  0  0  0  0  0  0  0  0  0  0
  -28.0710  -10.6410  -11.0779 C   0  0  0  0  0  0  0  0  0  0  0  0
  -27.2453   -9.7009  -10.6082 N   0  0  0  0  0  0  0  0  0  0  0  0
  -27.6449   -8.9431   -9.5685 C   0  0  0  0  0  0  0  0  0  0  0  0
  -26.6916   -8.0288   -9.1398 N   0  0  0  0  0  0  0  0  0  0  0  0
  -28.9337   -9.1314   -9.0097 C   0  0  0  0  0  0  0  0  0  0  0  0
  -29.7235   -8.4973   -7.9378 C   0  0  0  0  0  0  0  0  0  0  0  0
  -25.7975   -8.2339   -9.5732 H   0  0  0  0  0  0  0  0  0  0  0  0
  -26.6682   -7.8813   -8.1395 H   0  0  0  0  0  0  0  0  0  0  0  0
  -28.1717   -4.0248   -4.7009 N   0  0  0  0  0  0  0  0  0  0  0  0
  -27.3608   -4.2137   -4.1273 H   0  0  0  0  0  0  0  0  0  0  0  0
  -28.3422   -2.7409   -5.0697 C   0  0  0  0  0  0  0  0  0  0  0  0
  -27.5090   -1.9587   -5.7218 N   0  0  0  0  0  0  0  0  0  0  0  0
  -28.2203   -0.7931   -5.8910 C   0  0  0  0  0  0  0  0  0  0  0  0
  -27.9101    0.3983   -6.5506 C   0  0  0  0  0  0  0  0  0  0  0  0
  -28.8832    1.4104   -6.5778 C   0  0  0  0  0  0  0  0  0  0  0  0
  -30.1301    1.2446   -5.9541 C   0  0  0  0  0  0  0  0  0  0  0  0
  -30.4476    0.0637   -5.2794 C   0  0  0  0  0  0  0  0  0  0  0  0
  -29.4601   -0.9114   -5.2829 C   0  0  0  0  0  0  0  0  0  0  0  0
  -29.5311   -2.1464   -4.7329 O   0  0  0  0  0  0  0  0  0  0  0  0
  7  8  1  0  0  0
  8  9  1  0  0  0
  8 17  2  0  0  0
  9 10  1  0  0  0
 10 11  1  0  0  0
 10 16  2  0  0  0
 11 12  2  0  0  0
 12 13  1  0  0  0
 13 14  2  0  0  0
 14 15  1  0  0  0
 14 16  1  0  0  0
 15 18  1  0  0  0
 15 19  1  0  0  0
 16 17  1  0  0  0
 17  1  1  0  0  0
  1  2  1  0  0  0
  1  6  2  0  0  0
  2  3  2  0  0  0
  3  4  1  0  0  0
  4 20  1  0  0  0
  4  5  2  0  0  0
 20 22  1  0  0  0
 20 21  1  0  0  0
 22 23  2  0  0  0
 22 30  1  0  0  0
 23 24  1  0  0  0
 24 25  1  0  0  0
 24 29  2  0  0  0
 25 26  2  0  0  0
 26 27  1  0  0  0
 27 28  2  0  0  0
 28 29  1  0  0  0
 29 30  1  0  0  0
  5  6  1  0  0  0
M  END
> <minimizedAffinity>
-8.88911

$$$$
