CHEMBL3740163


 40 44  0  0  0  0  0  0  0  0999 V2000
  -30.4079   -6.4913   -5.3183 O   0  0  0  0  0  0  0  0  0  0  0  0
  -29.8646   -5.3785   -5.9063 C   0  0  0  0  0  0  0  0  0  0  0  0
  -29.4909   -5.5399   -7.2314 C   0  0  0  0  0  0  0  0  0  0  0  0
  -28.9242   -4.4725   -7.9326 C   0  0  0  0  0  0  0  0  0  0  0  0
  -28.6637   -3.2308   -7.3253 C   0  0  0  0  0  0  0  0  0  0  0  0
  -29.0864   -3.0822   -5.9955 C   0  0  0  0  0  0  0  0  0  0  0  0
  -29.7124   -4.1312   -5.3044 C   0  0  0  0  0  0  0  0  0  0  0  0
  -28.8492   -1.9615   -5.2432 O   0  0  0  0  0  0  0  0  0  0  0  0
  -28.8060   -0.7813   -6.0355 C   0  0  0  0  0  0  0  0  0  0  0  0
  -27.8984   -0.8856   -7.2613 C   0  0  0  0  0  0  0  0  0  0  0  0
  -27.9957   -2.1485   -8.0118 N   0  0  0  0  0  0  0  0  0  0  0  0
  -27.2854   -2.3780   -9.2027 C   0  0  0  0  0  0  0  0  0  0  0  0
  -27.0657   -3.5091   -9.6345 O   0  0  0  0  0  0  0  0  0  0  0  0
  -26.8272   -1.2581   -9.8817 N   0  0  0  0  0  0  0  0  0  0  0  0
  -26.5316   -0.4668   -9.3347 H   0  0  0  0  0  0  0  0  0  0  0  0
  -26.2983   -1.3409  -11.2033 C   0  0  0  0  0  0  0  0  0  0  0  0
  -27.1179   -1.5593  -12.3203 C   0  0  0  0  0  0  0  0  0  0  0  0
  -26.5774   -1.7420  -13.5953 C   0  0  0  0  0  0  0  0  0  0  0  0
  -25.2029   -1.6699  -13.7790 C   0  0  0  0  0  0  0  0  0  0  0  0
  -24.3766   -1.3898  -12.6888 C   0  0  0  0  0  0  0  0  0  0  0  0
  -24.9216   -1.2128  -11.4078 C   0  0  0  0  0  0  0  0  0  0  0  0
  -30.0062   -9.7100   -6.6237 C   0  0  0  0  0  0  0  0  0  0  0  0
  -31.0485   -9.9003   -7.4458 N   0  0  0  0  0  0  0  0  0  0  0  0
  -31.9454   -8.9004   -7.5293 C   0  0  0  0  0  0  0  0  0  0  0  0
  -31.8340   -7.7236   -6.8333 C   0  0  0  0  0  0  0  0  0  0  0  0
  -30.6911   -7.5917   -6.0791 C   0  0  0  0  0  0  0  0  0  0  0  0
  -29.7902   -8.5783   -5.9412 N   0  0  0  0  0  0  0  0  0  0  0  0
  -29.1157  -10.7752   -6.4686 N   0  0  0  0  0  0  0  0  0  0  0  0
  -29.0356  -10.9485   -5.4733 H   0  0  0  0  0  0  0  0  0  0  0  0
  -25.5118  -11.5437   -7.1988 C   0  0  0  0  0  0  0  0  0  0  0  0
  -25.5131  -11.3404   -8.5839 C   0  0  0  0  0  0  0  0  0  0  0  0
  -26.6720  -10.9227   -9.2416 C   0  0  0  0  0  0  0  0  0  0  0  0
  -27.8552  -10.7296   -8.5291 C   0  0  0  0  0  0  0  0  0  0  0  0
  -27.8879  -10.9186   -7.1468 C   0  0  0  0  0  0  0  0  0  0  0  0
  -26.7139  -11.3398   -6.4992 C   0  0  0  0  0  0  0  0  0  0  0  0
  -24.3111  -12.0841   -6.4642 C   0  0  0  0  0  0  0  0  0  0  0  0
  -21.9546  -11.4460   -5.0260 C   0  0  0  0  0  0  0  0  0  0  0  0
  -22.9194  -10.9599   -6.4370 S   0  0  0  0  0  0  0  0  0  0  0  0
  -23.3872   -9.6033   -6.2190 O   0  0  0  0  0  0  0  0  0  0  0  0
  -22.1170  -11.2552   -7.6131 O   0  0  0  0  0  0  0  0  0  0  0  0
 37 38  1  0  0  0
 38 39  2  0  0  0
 38 40  2  0  0  0
 38 36  1  0  0  0
 36 30  1  0  0  0
 30 31  1  0  0  0
 30 35  2  0  0  0
 31 32  2  0  0  0
 32 33  1  0  0  0
 33 34  2  0  0  0
 34 28  1  0  0  0
 34 35  1  0  0  0
 28 22  1  0  0  0
 28 29  1  0  0  0
 22 23  1  0  0  0
 22 27  2  0  0  0
 23 24  2  0  0  0
 24 25  1  0  0  0
 25 26  2  0  0  0
 26  1  1  0  0  0
 26 27  1  0  0  0
  1  2  1  0  0  0
  2  3  1  0  0  0
  2  7  2  0  0  0
  3  4  2  0  0  0
  4  5  1  0  0  0
  5  6  2  0  0  0
  5 11  1  0  0  0
  6  7  1  0  0  0
  6  8  1  0  0  0
  8  9  1  0  0  0
  9 10  1  0  0  0
 10 11  1  0  0  0
 11 12  1  0  0  0
 12 13  2  0  0  0
 12 14  1  0  0  0
 14 16  1  0  0  0
 14 15  1  0  0  0
 16 17  1  0  0  0
 16 21  2  0  0  0
 17 18  2  0  0  0
 18 19  1  0  0  0
 19 20  2  0  0  0
 20 21  1  0  0  0
M  END
> <minimizedAffinity>
-9.55070

$$$$
