CHEMBL3593291


 41 45  0  0  0  0  0  0  0  0999 V2000
  -21.6718    0.6105  -14.0107 C   0  0  0  0  0  0  0  0  0  0  0  0
  -20.8550   -0.0882  -14.8745 C   0  0  0  0  0  0  0  0  0  0  0  0
  -19.8824    0.6456  -15.4992 N   0  0  0  0  0  0  0  0  0  0  0  0
  -19.9144    1.8995  -15.1122 C   0  0  0  0  0  0  0  0  0  0  0  0
  -21.1758    2.2561  -13.9928 S   0  0  0  0  0  0  0  0  0  0  0  0
  -24.8921   -0.9761  -11.6841 C   0  0  0  0  0  0  0  0  0  0  0  0
  -23.8605   -1.7991  -12.1208 C   0  0  0  0  0  0  0  0  0  0  0  0
  -22.8114   -1.2654  -12.8700 C   0  0  0  0  0  0  0  0  0  0  0  0
  -22.7729    0.0992  -13.1962 C   0  0  0  0  0  0  0  0  0  0  0  0
  -23.8235    0.9170  -12.7669 C   0  0  0  0  0  0  0  0  0  0  0  0
  -24.8801    0.3799  -12.0263 C   0  0  0  0  0  0  0  0  0  0  0  0
  -28.1027   -2.1858  -10.3702 N   0  0  0  0  0  0  0  0  0  0  0  0
  -27.2130   -1.8246  -11.3496 C   0  0  0  0  0  0  0  0  0  0  0  0
  -27.5832   -1.9031  -12.5161 O   0  0  0  0  0  0  0  0  0  0  0  0
  -25.9712   -1.4349  -10.9206 N   0  0  0  0  0  0  0  0  0  0  0  0
  -28.9914   -2.5034  -10.7249 H   0  0  0  0  0  0  0  0  0  0  0  0
  -25.8018   -1.5599   -9.9277 H   0  0  0  0  0  0  0  0  0  0  0  0
  -28.0337   -2.6173   -6.8582 C   0  0  0  0  0  0  0  0  0  0  0  0
  -28.4613   -3.0627   -8.0864 C   0  0  0  0  0  0  0  0  0  0  0  0
  -27.9282   -2.1318   -9.0049 C   0  0  0  0  0  0  0  0  0  0  0  0
  -27.2226   -1.1883   -8.3657 N   0  0  0  0  0  0  0  0  0  0  0  0
  -27.2988   -1.4885   -7.0257 O   0  0  0  0  0  0  0  0  0  0  0  0
  -29.0639   -2.1397   -4.6581 C   0  0  0  0  0  0  0  0  0  0  0  0
  -28.1917   -3.0848   -5.4654 C   0  0  0  0  0  0  0  0  0  0  0  0
  -19.0415    2.8652  -15.4957 N   0  0  0  0  0  0  0  0  0  0  0  0
  -19.2744    3.8312  -15.3051 H   0  0  0  0  0  0  0  0  0  0  0  0
  -17.6503    2.7123  -15.5669 C   0  0  0  0  0  0  0  0  0  0  0  0
  -16.9741    1.6892  -14.9288 C   0  0  0  0  0  0  0  0  0  0  0  0
  -15.5975    1.6942  -14.9100 C   0  0  0  0  0  0  0  0  0  0  0  0
  -14.9315    2.6274  -15.6089 N   0  0  0  0  0  0  0  0  0  0  0  0
  -15.6498    3.5499  -16.2760 C   0  0  0  0  0  0  0  0  0  0  0  0
  -14.8991    4.5664  -17.0760 C   0  0  0  0  0  0  0  0  0  0  0  0
  -16.9915    3.6382  -16.2768 N   0  0  0  0  0  0  0  0  0  0  0  0
  -14.8856    0.7634  -14.1887 N   0  0  0  0  0  0  0  0  0  0  0  0
  -15.5806   -0.2778  -13.4459 C   0  0  0  0  0  0  0  0  0  0  0  0
  -14.5548   -1.4033  -13.2809 C   0  0  0  0  0  0  0  0  0  0  0  0
  -13.4577   -1.1245  -14.3085 C   0  0  0  0  0  0  0  0  0  0  0  0
  -13.7287   -1.7777  -15.5972 N   0  0  0  0  0  0  0  0  0  0  0  0
  -13.4870    0.4121  -14.4312 C   0  0  0  0  0  0  0  0  0  0  0  0
  -14.5924   -1.3937  -15.9860 H   0  0  0  0  0  0  0  0  0  0  0  0
  -13.8849   -2.7738  -15.4592 H   0  0  0  0  0  0  0  0  0  0  0  0
 23 24  1  0  0  0
 24 18  1  0  0  0
 18 19  2  0  0  0
 18 22  1  0  0  0
 19 20  1  0  0  0
 20 12  1  0  0  0
 20 21  2  0  0  0
 12 13  1  0  0  0
 12 16  1  0  0  0
 13 14  2  0  0  0
 13 15  1  0  0  0
 15  6  1  0  0  0
 15 17  1  0  0  0
  6  7  1  0  0  0
  6 11  2  0  0  0
  7  8  2  0  0  0
  8  9  1  0  0  0
  9  1  1  0  0  0
  9 10  2  0  0  0
  1  2  2  0  0  0
  1  5  1  0  0  0
  2  3  1  0  0  0
  3  4  2  0  0  0
  4 25  1  0  0  0
  4  5  1  0  0  0
 25 27  1  0  0  0
 25 26  1  0  0  0
 27 28  1  0  0  0
 27 33  2  0  0  0
 28 29  2  0  0  0
 29 34  1  0  0  0
 29 30  1  0  0  0
 34 35  1  0  0  0
 34 39  1  0  0  0
 35 36  1  0  0  0
 36 37  1  0  0  0
 37 38  1  0  0  0
 37 39  1  0  0  0
 38 40  1  0  0  0
 38 41  1  0  0  0
 30 31  2  0  0  0
 31 32  1  0  0  0
 31 33  1  0  0  0
 10 11  1  0  0  0
 21 22  1  0  0  0
M  END
> <minimizedAffinity>
-10.12051

$$$$
