CHEMBL381182


 31 34  0  0  0  0  0  0  0  0999 V2000
  -26.3795   -1.9266  -10.9355 C   0  0  0  0  0  0  0  0  0  0  0  0
  -27.5288   -1.4455  -11.3602 N   0  0  0  0  0  0  0  0  0  0  0  0
  -28.3166   -1.2498  -10.2453 N   0  0  0  0  0  0  0  0  0  0  0  0
  -27.5982   -1.6183   -9.2069 C   0  0  0  0  0  0  0  0  0  0  0  0
  -26.3471   -2.0454   -9.5743 O   0  0  0  0  0  0  0  0  0  0  0  0
  -27.9118   -1.6521   -7.7813 C   0  0  0  0  0  0  0  0  0  0  0  0
  -27.6315   -0.5277   -6.9802 C   0  0  0  0  0  0  0  0  0  0  0  0
  -27.9605   -0.5072   -5.6269 C   0  0  0  0  0  0  0  0  0  0  0  0
  -28.5680   -1.6243   -5.1001 C   0  0  0  0  0  0  0  0  0  0  0  0
  -28.8322   -2.7359   -5.8161 N   0  0  0  0  0  0  0  0  0  0  0  0
  -28.5105   -2.7537   -7.1435 C   0  0  0  0  0  0  0  0  0  0  0  0
  -28.8563   -4.0555   -7.8414 C   0  0  0  0  0  0  0  0  0  0  0  0
  -29.8318   -4.9298   -7.0449 C   0  0  0  0  0  0  0  0  0  0  0  0
  -29.8101   -6.3845   -7.4506 C   0  0  0  0  0  0  0  0  0  0  0  0
  -30.9305   -7.2005   -7.2624 C   0  0  0  0  0  0  0  0  0  0  0  0
  -30.8815   -8.5138   -7.7100 C   0  0  0  0  0  0  0  0  0  0  0  0
  -29.8063   -9.0637   -8.3146 N   0  0  0  0  0  0  0  0  0  0  0  0
  -28.7309   -8.2632   -8.4736 C   0  0  0  0  0  0  0  0  0  0  0  0
  -28.6822   -6.9397   -8.0594 C   0  0  0  0  0  0  0  0  0  0  0  0
  -25.2910   -2.2365  -11.6645 N   0  0  0  0  0  0  0  0  0  0  0  0
  -24.9597   -3.1866  -11.5454 H   0  0  0  0  0  0  0  0  0  0  0  0
  -22.4497    0.2137  -13.6646 C   0  0  0  0  0  0  0  0  0  0  0  0
  -23.5697   -0.2630  -14.3550 C   0  0  0  0  0  0  0  0  0  0  0  0
  -24.5201   -1.0668  -13.7121 C   0  0  0  0  0  0  0  0  0  0  0  0
  -24.3937   -1.4059  -12.3607 C   0  0  0  0  0  0  0  0  0  0  0  0
  -23.2571   -0.9369  -11.6806 C   0  0  0  0  0  0  0  0  0  0  0  0
  -22.3018   -0.1335  -12.3169 C   0  0  0  0  0  0  0  0  0  0  0  0
  -20.9307    0.5393  -15.4982 F   0  0  0  0  0  0  0  0  0  0  0  0
  -21.4220    1.0812  -14.3487 C   0  0  0  0  0  0  0  0  0  0  0  0
  -20.3389    1.3254  -13.5602 F   0  0  0  0  0  0  0  0  0  0  0  0
  -21.9170    2.3017  -14.6940 F   0  0  0  0  0  0  0  0  0  0  0  0
 28 29  1  0  0  0
 29 30  1  0  0  0
 29 31  1  0  0  0
 29 22  1  0  0  0
 22 23  1  0  0  0
 22 27  2  0  0  0
 23 24  2  0  0  0
 24 25  1  0  0  0
 25 20  1  0  0  0
 25 26  2  0  0  0
 20  1  1  0  0  0
 20 21  1  0  0  0
  1  2  2  0  0  0
  1  5  1  0  0  0
  2  3  1  0  0  0
  3  4  2  0  0  0
  4  6  1  0  0  0
  4  5  1  0  0  0
  6  7  1  0  0  0
  6 11  2  0  0  0
  7  8  2  0  0  0
  8  9  1  0  0  0
  9 10  2  0  0  0
 10 11  1  0  0  0
 11 12  1  0  0  0
 12 13  1  0  0  0
 13 14  1  0  0  0
 14 15  1  0  0  0
 14 19  2  0  0  0
 15 16  2  0  0  0
 16 17  1  0  0  0
 17 18  2  0  0  0
 18 19  1  0  0  0
 26 27  1  0  0  0
M  END
> <minimizedAffinity>
-10.50301

$$$$
