CHEMBL491758


 23 25  0  0  0  0  0  0  0  0999 V2000
  -26.3650   -1.2079  -13.2489 F   0  0  0  0  0  0  0  0  0  0  0  0
  -26.7270   -1.4163  -11.9757 C   0  0  0  0  0  0  0  0  0  0  0  0
  -28.0436   -1.4360  -11.6112 C   0  0  0  0  0  0  0  0  0  0  0  0
  -28.4460   -1.6154  -10.3431 N   0  0  0  0  0  0  0  0  0  0  0  0
  -27.4962   -1.8118   -9.4096 C   0  0  0  0  0  0  0  0  0  0  0  0
  -26.1881   -1.8621   -9.6924 N   0  0  0  0  0  0  0  0  0  0  0  0
  -25.8019   -1.6373  -10.9720 C   0  0  0  0  0  0  0  0  0  0  0  0
  -27.8747   -2.0033   -8.0851 N   0  0  0  0  0  0  0  0  0  0  0  0
  -27.7889   -2.9680   -7.7998 H   0  0  0  0  0  0  0  0  0  0  0  0
  -27.9250   -1.0489   -7.0522 C   0  0  0  0  0  0  0  0  0  0  0  0
  -27.5525   -1.4069   -5.7502 C   0  0  0  0  0  0  0  0  0  0  0  0
  -27.7012   -0.5073   -4.6894 C   0  0  0  0  0  0  0  0  0  0  0  0
  -28.2055    0.7716   -4.9194 C   0  0  0  0  0  0  0  0  0  0  0  0
  -28.5550    1.1542   -6.2093 C   0  0  0  0  0  0  0  0  0  0  0  0
  -28.4187    0.2483   -7.2616 C   0  0  0  0  0  0  0  0  0  0  0  0
  -24.4307   -1.6697  -11.3239 N   0  0  0  0  0  0  0  0  0  0  0  0
  -24.0486   -2.6075  -11.2851 H   0  0  0  0  0  0  0  0  0  0  0  0
  -23.7683   -0.7900  -12.1957 C   0  0  0  0  0  0  0  0  0  0  0  0
  -23.9714    0.5942  -12.1127 C   0  0  0  0  0  0  0  0  0  0  0  0
  -23.3258    1.4706  -12.9824 C   0  0  0  0  0  0  0  0  0  0  0  0
  -22.4704    0.9705  -13.9594 C   0  0  0  0  0  0  0  0  0  0  0  0
  -22.2573   -0.4032  -14.0581 C   0  0  0  0  0  0  0  0  0  0  0  0
  -22.8985   -1.2792  -13.1765 C   0  0  0  0  0  0  0  0  0  0  0  0
  1  2  1  0  0  0
  2  3  1  0  0  0
  2  7  2  0  0  0
  3  4  2  0  0  0
  4  5  1  0  0  0
  5  8  1  0  0  0
  5  6  2  0  0  0
  8 10  1  0  0  0
  8  9  1  0  0  0
 10 11  1  0  0  0
 10 15  2  0  0  0
 11 12  2  0  0  0
 12 13  1  0  0  0
 13 14  2  0  0  0
 14 15  1  0  0  0
  6  7  1  0  0  0
  7 16  1  0  0  0
 16 18  1  0  0  0
 16 17  1  0  0  0
 18 19  1  0  0  0
 18 23  2  0  0  0
 19 20  2  0  0  0
 20 21  1  0  0  0
 21 22  2  0  0  0
 22 23  1  0  0  0
M  END
> <minimizedAffinity>
-8.57837

$$$$
