CHEMBL3962554


 38 42  0  0  0  0  0  0  0  0999 V2000
  -27.9982   -2.4115   -8.4184 N   0  0  0  0  0  0  0  0  0  0  0  0
  -27.3792   -2.0903   -9.6434 C   0  0  0  0  0  0  0  0  0  0  0  0
  -26.0816   -1.4809   -9.4625 C   0  0  0  0  0  0  0  0  0  0  0  0
  -25.3459   -1.1736  -10.5458 C   0  0  0  0  0  0  0  0  0  0  0  0
  -25.7919   -1.3370  -11.7289 C   0  0  0  0  0  0  0  0  0  0  0  0
  -25.2761   -0.4108  -12.4284 N   0  0  0  0  0  0  0  0  0  0  0  0
  -24.0630   -0.4385  -12.8939 C   0  0  0  0  0  0  0  0  0  0  0  0
  -24.3353   -0.7916  -14.0916 C   0  0  0  0  0  0  0  0  0  0  0  0
  -25.8655   -1.5210  -13.9363 N   0  0  0  0  0  0  0  0  0  0  0  0
  -26.8109   -1.8501  -12.4537 C   0  0  0  0  0  0  0  0  0  0  0  0
  -27.7534   -2.1796  -10.9195 C   0  0  0  0  0  0  0  0  0  0  0  0
  -22.8196    0.4086  -14.2958 C   0  0  0  0  0  0  0  0  0  0  0  0
  -22.1554    1.9371  -14.0866 C   0  0  0  0  0  0  0  0  0  0  0  0
  -20.8482    2.2903  -14.3440 N   0  0  0  0  0  0  0  0  0  0  0  0
  -20.2584    1.1728  -14.7635 N   0  0  0  0  0  0  0  0  0  0  0  0
  -18.7655    1.1212  -15.0053 C   0  0  0  0  0  0  0  0  0  0  0  0
  -21.3177    0.0984  -14.8052 C   0  0  0  0  0  0  0  0  0  0  0  0
  -28.7705    0.5452   -6.1857 C   0  0  0  0  0  0  0  0  0  0  0  0
  -28.5489   -0.0365   -4.9922 C   0  0  0  0  0  0  0  0  0  0  0  0
  -28.0877   -1.3448   -4.8820 C   0  0  0  0  0  0  0  0  0  0  0  0
  -27.8061   -2.0840   -6.0166 C   0  0  0  0  0  0  0  0  0  0  0  0
  -28.0858   -1.5772   -7.2691 C   0  0  0  0  0  0  0  0  0  0  0  0
  -28.4044   -0.2038   -7.2486 C   0  0  0  0  0  0  0  0  0  0  0  0
  -30.8421    1.6442   -6.3495 C   0  0  0  0  0  0  0  0  0  0  0  0
  -29.4278    1.7091   -6.4382 O   0  0  0  0  0  0  0  0  0  0  0  0
  -27.9412   -1.9756   -3.6810 O   0  0  0  0  0  0  0  0  0  0  0  0
  -29.0484   -2.7816   -3.2776 C   0  0  0  0  0  0  0  0  0  0  0  0
  -28.3531   -3.8495   -8.3356 C   0  0  0  0  0  0  0  0  0  0  0  0
  -29.7569   -4.1049   -7.8577 C   0  0  0  0  0  0  0  0  0  0  0  0
  -30.1084   -5.4432   -7.4872 N   0  0  0  0  0  0  0  0  0  0  0  0
  -28.9695   -6.3188   -7.7852 C   0  0  0  0  0  0  0  0  0  0  0  0
  -29.4060   -7.7245   -7.4670 C   0  0  0  0  0  0  0  0  0  0  0  0
  -29.7797   -7.8564   -5.9903 C   0  0  0  0  0  0  0  0  0  0  0  0
  -30.8258   -6.7975   -5.6451 C   0  0  0  0  0  0  0  0  0  0  0  0
  -30.3464   -5.4311   -6.0389 C   0  0  0  0  0  0  0  0  0  0  0  0
  -28.5807   -7.6915   -5.1403 N   0  0  0  0  0  0  0  0  0  0  0  0
  -28.9641   -7.6710   -3.7338 C   0  0  0  0  0  0  0  0  0  0  0  0
  -27.6562   -8.7976   -5.3604 C   0  0  0  0  0  0  0  0  0  0  0  0
 24 25  1  0  0  0
 25 18  1  0  0  0
 18 19  1  0  0  0
 18 23  2  0  0  0
 19 20  2  0  0  0
 20 26  1  0  0  0
 20 21  1  0  0  0
 26 27  1  0  0  0
 21 22  2  0  0  0
 22  1  1  0  0  0
 22 23  1  0  0  0
  1 28  1  0  0  0
  1  2  1  0  0  0
 28 29  1  0  0  0
 29 30  1  0  0  0
 30 31  1  0  0  0
 30 35  1  0  0  0
 31 32  1  0  0  0
 32 33  1  0  0  0
 33 36  1  0  0  0
 33 34  1  0  0  0
 36 37  1  0  0  0
 36 38  1  0  0  0
 34 35  1  0  0  0
  2  3  1  0  0  0
  2 11  2  0  0  0
  3  4  2  0  0  0
  4  5  1  0  0  0
  5  6  1  0  0  0
  5 10  2  0  0  0
  6  7  2  0  0  0
  7  8  1  0  0  0
  8 12  1  0  0  0
  8  9  2  0  0  0
 12 13  1  0  0  0
 12 17  2  0  0  0
 13 14  2  0  0  0
 14 15  1  0  0  0
 15 16  1  0  0  0
 15 17  1  0  0  0
  9 10  1  0  0  0
 10 11  1  0  0  0
M  END
> <minimizedAffinity>
-9.25918

$$$$
