CHEMBL1967531


 30 33  0  0  0  0  0  0  0  0999 V2000
  -29.4612   -8.4012   -6.4782 C   0  0  0  0  0  0  0  0  0  0  0  0
  -28.4421   -7.8644   -5.6881 C   0  0  0  0  0  0  0  0  0  0  0  0
  -28.6311   -6.6730   -4.9922 C   0  0  0  0  0  0  0  0  0  0  0  0
  -29.8122   -5.9308   -5.1205 C   0  0  0  0  0  0  0  0  0  0  0  0
  -30.8554   -6.4861   -5.8612 C   0  0  0  0  0  0  0  0  0  0  0  0
  -30.6875   -7.7248   -6.5072 C   0  0  0  0  0  0  0  0  0  0  0  0
  -27.4492   -7.6443   -9.1170 N   0  0  0  0  0  0  0  0  0  0  0  0
  -27.6724   -9.0034   -9.3055 C   0  0  0  0  0  0  0  0  0  0  0  0
  -27.0751   -9.5253  -10.3927 N   0  0  0  0  0  0  0  0  0  0  0  0
  -27.1970  -10.8371  -10.6264 C   0  0  0  0  0  0  0  0  0  0  0  0
  -27.8524  -11.7301   -9.8903 N   0  0  0  0  0  0  0  0  0  0  0  0
  -28.4515  -11.1768   -8.8236 C   0  0  0  0  0  0  0  0  0  0  0  0
  -29.3296  -12.1641   -7.7560 S   0  0  0  0  0  0  0  0  0  0  0  0
  -29.7446  -10.8309   -6.7850 C   0  0  0  0  0  0  0  0  0  0  0  0
  -29.2185   -9.6311   -7.2426 C   0  0  0  0  0  0  0  0  0  0  0  0
  -28.4339   -9.8349   -8.4544 C   0  0  0  0  0  0  0  0  0  0  0  0
  -26.7092   -7.3349   -9.7386 H   0  0  0  0  0  0  0  0  0  0  0  0
  -27.3251   -7.3855   -8.1455 H   0  0  0  0  0  0  0  0  0  0  0  0
  -29.9751   -4.6532   -4.5258 N   0  0  0  0  0  0  0  0  0  0  0  0
  -29.6963   -3.4709   -5.1916 C   0  0  0  0  0  0  0  0  0  0  0  0
  -29.3899   -3.4246   -6.3795 O   0  0  0  0  0  0  0  0  0  0  0  0
  -29.7696   -2.3573   -4.3744 N   0  0  0  0  0  0  0  0  0  0  0  0
  -30.5577   -4.5926   -3.7019 H   0  0  0  0  0  0  0  0  0  0  0  0
  -29.7313   -2.5211   -3.3783 H   0  0  0  0  0  0  0  0  0  0  0  0
  -29.4482   -1.0474   -4.8202 C   0  0  0  0  0  0  0  0  0  0  0  0
  -30.4019   -0.1814   -5.3765 C   0  0  0  0  0  0  0  0  0  0  0  0
  -30.0288    1.0232   -5.9697 C   0  0  0  0  0  0  0  0  0  0  0  0
  -28.6965    1.4090   -5.9634 C   0  0  0  0  0  0  0  0  0  0  0  0
  -27.7477    0.6047   -5.3310 C   0  0  0  0  0  0  0  0  0  0  0  0
  -28.1214   -0.6164   -4.7535 C   0  0  0  0  0  0  0  0  0  0  0  0
  7  8  1  0  0  0
  7 17  1  0  0  0
  7 18  1  0  0  0
  8  9  1  0  0  0
  8 16  2  0  0  0
  9 10  2  0  0  0
 10 11  1  0  0  0
 11 12  2  0  0  0
 12 13  1  0  0  0
 12 16  1  0  0  0
 13 14  1  0  0  0
 14 15  2  0  0  0
 15  1  1  0  0  0
 15 16  1  0  0  0
  1  2  1  0  0  0
  1  6  2  0  0  0
  2  3  2  0  0  0
  3  4  1  0  0  0
  4 19  1  0  0  0
  4  5  2  0  0  0
 19 20  1  0  0  0
 19 23  1  0  0  0
 20 21  2  0  0  0
 20 22  1  0  0  0
 22 25  1  0  0  0
 22 24  1  0  0  0
 25 26  1  0  0  0
 25 30  2  0  0  0
 26 27  2  0  0  0
 27 28  1  0  0  0
 28 29  2  0  0  0
 29 30  1  0  0  0
  5  6  1  0  0  0
M  END
> <minimizedAffinity>
-8.38858

$$$$
