CHEMBL1084450


 45 50  0  0  0  0  0  0  0  0999 V2000
  -26.7041   -2.0345  -12.1165 C   0  0  0  0  0  0  0  0  0  0  0  0
  -27.5520   -2.0912  -13.2237 C   0  0  0  0  0  0  0  0  0  0  0  0
  -27.1091   -1.6926  -14.4845 C   0  0  0  0  0  0  0  0  0  0  0  0
  -25.8057   -1.2351  -14.6601 C   0  0  0  0  0  0  0  0  0  0  0  0
  -24.9309   -1.1723  -13.5678 C   0  0  0  0  0  0  0  0  0  0  0  0
  -25.3935   -1.5564  -12.2946 C   0  0  0  0  0  0  0  0  0  0  0  0
  -23.5961   -0.6928  -13.7675 N   0  0  0  0  0  0  0  0  0  0  0  0
  -22.4985   -1.5094  -13.9723 C   0  0  0  0  0  0  0  0  0  0  0  0
  -21.3903   -0.7310  -14.2157 C   0  0  0  0  0  0  0  0  0  0  0  0
  -21.7752    0.6334  -14.1024 C   0  0  0  0  0  0  0  0  0  0  0  0
  -21.0871    1.8651  -14.2110 C   0  0  0  0  0  0  0  0  0  0  0  0
  -21.7689    3.0146  -13.9996 N   0  0  0  0  0  0  0  0  0  0  0  0
  -23.0601    2.9876  -13.6389 C   0  0  0  0  0  0  0  0  0  0  0  0
  -23.8078    1.8370  -13.4985 C   0  0  0  0  0  0  0  0  0  0  0  0
  -23.1517    0.6317  -13.7889 C   0  0  0  0  0  0  0  0  0  0  0  0
  -19.7140    1.9137  -14.5279 N   0  0  0  0  0  0  0  0  0  0  0  0
  -19.1155    2.9916  -15.1580 C   0  0  0  0  0  0  0  0  0  0  0  0
  -19.6595    4.0467  -15.4652 O   0  0  0  0  0  0  0  0  0  0  0  0
  -19.1539    1.1336  -14.2233 H   0  0  0  0  0  0  0  0  0  0  0  0
  -17.6616    2.8773  -15.4895 C   0  0  0  0  0  0  0  0  0  0  0  0
  -16.9791    1.6601  -15.5794 C   0  0  0  0  0  0  0  0  0  0  0  0
  -15.6438    1.6366  -16.0039 C   0  0  0  0  0  0  0  0  0  0  0  0
  -14.9883    2.8239  -16.3422 C   0  0  0  0  0  0  0  0  0  0  0  0
  -15.6563    4.0399  -16.2442 C   0  0  0  0  0  0  0  0  0  0  0  0
  -16.9836    4.0655  -15.8188 C   0  0  0  0  0  0  0  0  0  0  0  0
  -28.2654   -0.5106  -10.1310 O   0  0  0  0  0  0  0  0  0  0  0  0
  -27.8277   -1.6400   -9.9153 C   0  0  0  0  0  0  0  0  0  0  0  0
  -27.1070   -2.4167  -10.8106 N   0  0  0  0  0  0  0  0  0  0  0  0
  -26.8300   -3.3438  -10.5228 H   0  0  0  0  0  0  0  0  0  0  0  0
  -28.1098   -2.2247   -8.5713 C   0  0  0  0  0  0  0  0  0  0  0  0
  -28.3670   -3.5895   -8.4878 C   0  0  0  0  0  0  0  0  0  0  0  0
  -28.6549   -4.1874   -7.2533 C   0  0  0  0  0  0  0  0  0  0  0  0
  -28.6645   -3.4741   -6.0353 C   0  0  0  0  0  0  0  0  0  0  0  0
  -28.2883   -2.1132   -6.1173 C   0  0  0  0  0  0  0  0  0  0  0  0
  -28.0661   -1.4970   -7.3861 C   0  0  0  0  0  0  0  0  0  0  0  0
  -29.0432   -4.1234   -4.8762 N   0  0  0  0  0  0  0  0  0  0  0  0
  -28.2142   -5.1476   -4.2024 C   0  0  0  0  0  0  0  0  0  0  0  0
  -29.0170   -6.4455   -4.0045 C   0  0  0  0  0  0  0  0  0  0  0  0
  -30.2429   -6.2069   -3.2948 O   0  0  0  0  0  0  0  0  0  0  0  0
  -31.0634   -5.2832   -4.0237 C   0  0  0  0  0  0  0  0  0  0  0  0
  -30.3569   -3.9357   -4.2287 C   0  0  0  0  0  0  0  0  0  0  0  0
  -28.0122   -1.2080   -4.9351 C   0  0  0  0  0  0  0  0  0  0  0  0
  -27.5102   -1.7885   -3.8154 F   0  0  0  0  0  0  0  0  0  0  0  0
  -27.1080   -0.2295   -5.2500 F   0  0  0  0  0  0  0  0  0  0  0  0
  -29.1346   -0.5349   -4.5434 F   0  0  0  0  0  0  0  0  0  0  0  0
 26 27  2  0  0  0
 27 28  1  0  0  0
 27 30  1  0  0  0
 28  1  1  0  0  0
 28 29  1  0  0  0
  1  2  1  0  0  0
  1  6  2  0  0  0
  2  3  2  0  0  0
  3  4  1  0  0  0
  4  5  2  0  0  0
  5  7  1  0  0  0
  5  6  1  0  0  0
  7  8  1  0  0  0
  7 15  1  0  0  0
  8  9  2  0  0  0
  9 10  1  0  0  0
 10 11  1  0  0  0
 10 15  2  0  0  0
 11 16  1  0  0  0
 11 12  2  0  0  0
 16 17  1  0  0  0
 16 19  1  0  0  0
 17 18  2  0  0  0
 17 20  1  0  0  0
 20 21  1  0  0  0
 20 25  2  0  0  0
 21 22  2  0  0  0
 22 23  1  0  0  0
 23 24  2  0  0  0
 24 25  1  0  0  0
 12 13  1  0  0  0
 13 14  2  0  0  0
 14 15  1  0  0  0
 30 31  1  0  0  0
 30 35  2  0  0  0
 31 32  2  0  0  0
 32 33  1  0  0  0
 33 36  1  0  0  0
 33 34  2  0  0  0
 36 37  1  0  0  0
 36 41  1  0  0  0
 37 38  1  0  0  0
 38 39  1  0  0  0
 39 40  1  0  0  0
 40 41  1  0  0  0
 34 42  1  0  0  0
 34 35  1  0  0  0
 42 43  1  0  0  0
 42 44  1  0  0  0
 42 45  1  0  0  0
M  END
> <minimizedAffinity>
-11.15486

$$$$
