CHEMBL3656059


 46 50  0  0  0  0  0  0  0  0999 V2000
  -22.0101    0.6914  -14.3757 C   0  0  0  0  0  0  0  0  0  0  0  0
  -22.6397    1.8857  -14.0481 C   0  0  0  0  0  0  0  0  0  0  0  0
  -21.9064    3.0576  -14.1127 C   0  0  0  0  0  0  0  0  0  0  0  0
  -20.5952    3.1088  -14.4279 N   0  0  0  0  0  0  0  0  0  0  0  0
  -19.9892    1.9255  -14.6844 C   0  0  0  0  0  0  0  0  0  0  0  0
  -20.6479    0.7012  -14.6547 C   0  0  0  0  0  0  0  0  0  0  0  0
  -18.5739    2.0293  -15.0236 C   0  0  0  0  0  0  0  0  0  0  0  0
  -17.5354    1.1366  -14.8233 C   0  0  0  0  0  0  0  0  0  0  0  0
  -16.3253    1.7129  -15.3046 C   0  0  0  0  0  0  0  0  0  0  0  0
  -16.6801    2.9508  -15.8170 C   0  0  0  0  0  0  0  0  0  0  0  0
  -18.0313    3.1222  -15.6587 N   0  0  0  0  0  0  0  0  0  0  0  0
  -18.5708    3.9279  -15.9501 H   0  0  0  0  0  0  0  0  0  0  0  0
  -14.9696    1.1827  -15.2768 C   0  0  0  0  0  0  0  0  0  0  0  0
  -13.9814    1.8643  -15.5401 O   0  0  0  0  0  0  0  0  0  0  0  0
  -14.8807   -0.1496  -14.9122 N   0  0  0  0  0  0  0  0  0  0  0  0
  -15.7241   -0.6967  -14.8533 H   0  0  0  0  0  0  0  0  0  0  0  0
  -13.6122   -0.8343  -14.8752 C   0  0  0  0  0  0  0  0  0  0  0  0
  -13.3871   -1.4778  -13.5127 C   0  0  0  0  0  0  0  0  0  0  0  0
  -14.1668   -2.7903  -13.4140 C   0  0  0  0  0  0  0  0  0  0  0  0
  -15.5799   -2.6056  -13.0426 N   0  0  0  0  0  0  0  0  0  0  0  0
  -15.7664   -2.0815  -11.6695 C   0  0  0  0  0  0  0  0  0  0  0  0
  -15.3866   -3.0835  -10.5667 C   0  0  0  0  0  0  0  0  0  0  0  0
  -16.1092   -4.3144  -10.7042 O   0  0  0  0  0  0  0  0  0  0  0  0
  -15.9151   -4.8860  -12.0045 C   0  0  0  0  0  0  0  0  0  0  0  0
  -16.3107   -3.8958  -13.1162 C   0  0  0  0  0  0  0  0  0  0  0  0
  -22.6467   -0.5331  -14.4114 O   0  0  0  0  0  0  0  0  0  0  0  0
  -26.1978   -0.9531  -12.2136 C   0  0  0  0  0  0  0  0  0  0  0  0
  -26.1089   -1.5046  -13.4959 C   0  0  0  0  0  0  0  0  0  0  0  0
  -24.9289   -1.4068  -14.2345 C   0  0  0  0  0  0  0  0  0  0  0  0
  -23.8389   -0.6947  -13.7324 C   0  0  0  0  0  0  0  0  0  0  0  0
  -23.9183   -0.1478  -12.4474 C   0  0  0  0  0  0  0  0  0  0  0  0
  -25.1029   -0.2568  -11.6949 C   0  0  0  0  0  0  0  0  0  0  0  0
  -28.3831   -2.0124   -9.5005 N   0  0  0  0  0  0  0  0  0  0  0  0
  -27.1917   -1.7944  -10.1835 C   0  0  0  0  0  0  0  0  0  0  0  0
  -26.0826   -2.0461   -9.7449 O   0  0  0  0  0  0  0  0  0  0  0  0
  -27.3651   -1.1793  -11.4262 N   0  0  0  0  0  0  0  0  0  0  0  0
  -29.2257   -1.6311   -9.9004 H   0  0  0  0  0  0  0  0  0  0  0  0
  -28.0472   -0.4358  -11.4268 H   0  0  0  0  0  0  0  0  0  0  0  0
  -29.7226   -5.9103   -6.6920 C   0  0  0  0  0  0  0  0  0  0  0  0
  -29.1593   -4.5224   -6.8204 C   0  0  0  0  0  0  0  0  0  0  0  0
  -28.7902   -3.8326   -5.6630 C   0  0  0  0  0  0  0  0  0  0  0  0
  -28.2549   -2.5567   -5.7590 C   0  0  0  0  0  0  0  0  0  0  0  0
  -28.0899   -1.9560   -7.0057 C   0  0  0  0  0  0  0  0  0  0  0  0
  -27.4463   -0.7825   -6.9981 F   0  0  0  0  0  0  0  0  0  0  0  0
  -28.4844   -2.5949   -8.1969 C   0  0  0  0  0  0  0  0  0  0  0  0
  -28.9995   -3.9012   -8.0828 C   0  0  0  0  0  0  0  0  0  0  0  0
 39 40  1  0  0  0
 40 41  1  0  0  0
 40 46  2  0  0  0
 41 42  2  0  0  0
 42 43  1  0  0  0
 43 44  1  0  0  0
 43 45  2  0  0  0
 45 33  1  0  0  0
 45 46  1  0  0  0
 33 34  1  0  0  0
 33 37  1  0  0  0
 34 35  2  0  0  0
 34 36  1  0  0  0
 36 27  1  0  0  0
 36 38  1  0  0  0
 27 28  1  0  0  0
 27 32  2  0  0  0
 28 29  2  0  0  0
 29 30  1  0  0  0
 30 26  1  0  0  0
 30 31  2  0  0  0
 26  1  1  0  0  0
  1  2  1  0  0  0
  1  6  2  0  0  0
  2  3  2  0  0  0
  3  4  1  0  0  0
  4  5  2  0  0  0
  5  7  1  0  0  0
  5  6  1  0  0  0
  7  8  2  0  0  0
  7 11  1  0  0  0
  8  9  1  0  0  0
  9 13  1  0  0  0
  9 10  2  0  0  0
 13 14  2  0  0  0
 13 15  1  0  0  0
 15 17  1  0  0  0
 15 16  1  0  0  0
 17 18  1  0  0  0
 18 19  1  0  0  0
 19 20  1  0  0  0
 20 21  1  0  0  0
 20 25  1  0  0  0
 21 22  1  0  0  0
 22 23  1  0  0  0
 23 24  1  0  0  0
 24 25  1  0  0  0
 10 11  1  0  0  0
 11 12  1  0  0  0
 31 32  1  0  0  0
M  END
> <minimizedAffinity>
-11.58514

$$$$
