CHEMBL3422066


 39 44  0  0  0  0  0  0  0  0999 V2000
  -13.6873   -3.2250  -18.8065 C   0  0  0  0  0  0  0  0  0  0  0  0
  -13.8578   -3.8423  -20.0478 C   0  0  0  0  0  0  0  0  0  0  0  0
  -14.0031   -5.2253  -20.1821 C   0  0  0  0  0  0  0  0  0  0  0  0
  -13.9567   -5.9904  -19.0093 C   0  0  0  0  0  0  0  0  0  0  0  0
  -14.0710   -7.3366  -18.7910 N   0  0  0  0  0  0  0  0  0  0  0  0
  -13.9288   -7.6997  -17.5093 N   0  0  0  0  0  0  0  0  0  0  0  0
  -13.7523   -6.5388  -16.8517 C   0  0  0  0  0  0  0  0  0  0  0  0
  -13.7434   -5.4293  -17.7592 C   0  0  0  0  0  0  0  0  0  0  0  0
  -13.5830   -4.0258  -17.6629 C   0  0  0  0  0  0  0  0  0  0  0  0
  -14.2425   -8.0596  -19.4822 H   0  0  0  0  0  0  0  0  0  0  0  0
  -13.6173   -6.5108  -15.3978 C   0  0  0  0  0  0  0  0  0  0  0  0
  -14.6854   -6.1266  -14.5834 C   0  0  0  0  0  0  0  0  0  0  0  0
  -14.5395   -6.0828  -13.1906 C   0  0  0  0  0  0  0  0  0  0  0  0
  -13.3205   -6.4017  -12.5798 C   0  0  0  0  0  0  0  0  0  0  0  0
  -12.2673   -6.8000  -13.4103 C   0  0  0  0  0  0  0  0  0  0  0  0
  -12.4052   -6.8491  -14.7937 C   0  0  0  0  0  0  0  0  0  0  0  0
  -13.1181   -6.3386  -11.2191 N   0  0  0  0  0  0  0  0  0  0  0  0
  -14.0670   -5.7126  -10.2933 C   0  0  0  0  0  0  0  0  0  0  0  0
  -13.4840   -4.4401   -9.6635 C   0  0  0  0  0  0  0  0  0  0  0  0
  -12.1901   -4.6737   -9.0826 O   0  0  0  0  0  0  0  0  0  0  0  0
  -11.2751   -5.1331  -10.0900 C   0  0  0  0  0  0  0  0  0  0  0  0
  -11.7383   -6.4626  -10.7052 C   0  0  0  0  0  0  0  0  0  0  0  0
  -11.3178   -1.5249  -18.5089 O   0  0  0  0  0  0  0  0  0  0  0  0
  -12.4675   -1.0777  -18.4897 C   0  0  0  0  0  0  0  0  0  0  0  0
  -13.6160   -1.8238  -18.6283 N   0  0  0  0  0  0  0  0  0  0  0  0
  -14.4574   -1.2861  -18.8189 H   0  0  0  0  0  0  0  0  0  0  0  0
  -12.6889    0.4067  -18.2274 C   0  0  0  0  0  0  0  0  0  0  0  0
  -13.4075    0.8539  -16.8968 C   0  0  0  0  0  0  0  0  0  0  0  0
  -14.9407    0.9863  -17.1772 C   0  0  0  0  0  0  0  0  0  0  0  0
  -15.7362    1.7922  -16.1332 C   0  0  0  0  0  0  0  0  0  0  0  0
  -15.1751    3.1826  -15.8797 C   0  0  0  0  0  0  0  0  0  0  0  0
  -13.6678    3.1912  -15.6687 C   0  0  0  0  0  0  0  0  0  0  0  0
  -12.9056    2.3248  -16.6676 C   0  0  0  0  0  0  0  0  0  0  0  0
  -13.0597   -0.1743  -15.8683 N   0  0  0  0  0  0  0  0  0  0  0  0
  -14.0661   -0.6703  -14.9127 C   0  0  0  0  0  0  0  0  0  0  0  0
  -14.1168    0.1057  -13.5875 C   0  0  0  0  0  0  0  0  0  0  0  0
  -12.8299    0.1144  -12.9570 O   0  0  0  0  0  0  0  0  0  0  0  0
  -11.8558    0.7018  -13.8299 C   0  0  0  0  0  0  0  0  0  0  0  0
  -11.7685   -0.0669  -15.1566 C   0  0  0  0  0  0  0  0  0  0  0  0
 23 24  2  0  0  0
 24 27  1  0  0  0
 24 25  1  0  0  0
 27 28  1  0  0  0
 28 34  1  0  0  0
 28 29  1  0  0  0
 28 33  1  0  0  0
 34 35  1  0  0  0
 34 39  1  0  0  0
 35 36  1  0  0  0
 36 37  1  0  0  0
 37 38  1  0  0  0
 38 39  1  0  0  0
 29 30  1  0  0  0
 30 31  1  0  0  0
 31 32  1  0  0  0
 32 33  1  0  0  0
 25  1  1  0  0  0
 25 26  1  0  0  0
  1  2  1  0  0  0
  1  9  2  0  0  0
  2  3  2  0  0  0
  3  4  1  0  0  0
  4  5  1  0  0  0
  4  8  2  0  0  0
  5  6  1  0  0  0
  5 10  1  0  0  0
  6  7  2  0  0  0
  7 11  1  0  0  0
  7  8  1  0  0  0
 11 12  1  0  0  0
 11 16  2  0  0  0
 12 13  2  0  0  0
 13 14  1  0  0  0
 14 17  1  0  0  0
 14 15  2  0  0  0
 17 18  1  0  0  0
 17 22  1  0  0  0
 18 19  1  0  0  0
 19 20  1  0  0  0
 20 21  1  0  0  0
 21 22  1  0  0  0
 15 16  1  0  0  0
  8  9  1  0  0  0
M  END
> <minimizedAffinity>
-6.79089

$$$$
