CHEMBL3905685


 26 28  0  0  0  0  0  0  0  0999 V2000
  -29.6881   -4.6178   -5.4766 C   0  0  0  0  0  0  0  0  0  0  0  0
  -28.9423   -4.6384   -6.6781 C   0  0  0  0  0  0  0  0  0  0  0  0
  -29.0032   -5.8023   -7.3022 N   0  0  0  0  0  0  0  0  0  0  0  0
  -29.7586   -6.5917   -6.4952 N   0  0  0  0  0  0  0  0  0  0  0  0
  -30.2156   -5.8872   -5.3832 C   0  0  0  0  0  0  0  0  0  0  0  0
  -30.9857   -6.4188   -4.3915 N   0  0  0  0  0  0  0  0  0  0  0  0
  -30.9976   -7.4268   -4.2387 H   0  0  0  0  0  0  0  0  0  0  0  0
  -30.9921   -5.9296   -3.4917 H   0  0  0  0  0  0  0  0  0  0  0  0
  -30.0207   -7.9413   -6.8175 C   0  0  0  0  0  0  0  0  0  0  0  0
  -31.1000   -8.2311   -7.6743 C   0  0  0  0  0  0  0  0  0  0  0  0
  -31.4323   -9.5471   -7.9454 C   0  0  0  0  0  0  0  0  0  0  0  0
  -32.4723   -9.8648   -8.7615 O   0  0  0  0  0  0  0  0  0  0  0  0
  -30.7080  -10.5801   -7.3831 C   0  0  0  0  0  0  0  0  0  0  0  0
  -29.6239  -10.3053   -6.5461 C   0  0  0  0  0  0  0  0  0  0  0  0
  -29.2626   -8.9848   -6.2636 C   0  0  0  0  0  0  0  0  0  0  0  0
  -27.9854   -8.7714   -5.1180 Cl  0  0  0  0  0  0  0  0  0  0  0  0
  -32.8466   -9.0500   -9.1414 H   0  0  0  0  0  0  0  0  0  0  0  0
  -29.8525   -3.5646   -4.5084 C   0  0  0  0  0  0  0  0  0  0  0  0
  -30.5542   -3.7298   -3.5011 O   0  0  0  0  0  0  0  0  0  0  0  0
  -30.3516    1.2145   -5.8591 C   0  0  0  0  0  0  0  0  0  0  0  0
  -29.4686    0.0825   -5.4263 C   0  0  0  0  0  0  0  0  0  0  0  0
  -28.0809    0.2453   -5.3432 C   0  0  0  0  0  0  0  0  0  0  0  0
  -27.2658   -0.8197   -4.9680 C   0  0  0  0  0  0  0  0  0  0  0  0
  -27.8255   -2.0634   -4.6751 C   0  0  0  0  0  0  0  0  0  0  0  0
  -29.2159   -2.2411   -4.7394 C   0  0  0  0  0  0  0  0  0  0  0  0
  -30.0284   -1.1643   -5.1170 C   0  0  0  0  0  0  0  0  0  0  0  0
 20 21  1  0  0  0
 21 22  1  0  0  0
 21 26  2  0  0  0
 22 23  2  0  0  0
 23 24  1  0  0  0
 24 25  2  0  0  0
 25 18  1  0  0  0
 25 26  1  0  0  0
 18 19  2  0  0  0
 18  1  1  0  0  0
  1  2  1  0  0  0
  1  5  2  0  0  0
  2  3  2  0  0  0
  3  4  1  0  0  0
  4  9  1  0  0  0
  4  5  1  0  0  0
  9 10  1  0  0  0
  9 15  2  0  0  0
 10 11  2  0  0  0
 11 12  1  0  0  0
 11 13  1  0  0  0
 12 17  1  0  0  0
 13 14  2  0  0  0
 14 15  1  0  0  0
 15 16  1  0  0  0
  5  6  1  0  0  0
  6  7  1  0  0  0
  6  8  1  0  0  0
M  END
> <minimizedAffinity>
-8.97306

$$$$
