CHEMBL3944438


 33 36  0  0  0  0  0  0  0  0999 V2000
  -14.7898    0.0929  -14.4481 N   0  0  0  0  0  0  0  0  0  0  0  0
  -14.9924   -0.9908  -13.5528 C   0  0  0  0  0  0  0  0  0  0  0  0
  -15.6942   -0.7784  -12.3610 C   0  0  0  0  0  0  0  0  0  0  0  0
  -15.9239   -1.8187  -11.4643 C   0  0  0  0  0  0  0  0  0  0  0  0
  -15.4819   -3.1003  -11.7362 C   0  0  0  0  0  0  0  0  0  0  0  0
  -15.7296   -4.0778  -10.8455 N   0  0  0  0  0  0  0  0  0  0  0  0
  -15.2895   -5.3071  -11.1792 C   0  0  0  0  0  0  0  0  0  0  0  0
  -14.6311   -5.5878  -12.3699 C   0  0  0  0  0  0  0  0  0  0  0  0
  -14.3705   -4.6046  -13.2659 N   0  0  0  0  0  0  0  0  0  0  0  0
  -14.7898   -3.3599  -12.9385 C   0  0  0  0  0  0  0  0  0  0  0  0
  -14.5476   -2.2997  -13.8106 C   0  0  0  0  0  0  0  0  0  0  0  0
  -14.2174   -6.9410  -12.6935 C   0  0  0  0  0  0  0  0  0  0  0  0
  -14.6956   -7.8313  -13.6833 C   0  0  0  0  0  0  0  0  0  0  0  0
  -14.0561   -9.0021  -13.6845 N   0  0  0  0  0  0  0  0  0  0  0  0
  -13.1608   -8.8712  -12.6906 N   0  0  0  0  0  0  0  0  0  0  0  0
  -12.2698   -9.9642  -12.3869 C   0  0  0  0  0  0  0  0  0  0  0  0
  -13.2112   -7.6555  -12.0698 C   0  0  0  0  0  0  0  0  0  0  0  0
  -18.2213    1.4685  -15.2061 C   0  0  0  0  0  0  0  0  0  0  0  0
  -17.9135    2.6376  -15.8983 C   0  0  0  0  0  0  0  0  0  0  0  0
  -16.5816    2.9715  -16.0799 C   0  0  0  0  0  0  0  0  0  0  0  0
  -16.2869    4.0857  -16.7650 F   0  0  0  0  0  0  0  0  0  0  0  0
  -15.5412    2.1686  -15.5952 C   0  0  0  0  0  0  0  0  0  0  0  0
  -15.8087    0.9867  -14.8875 C   0  0  0  0  0  0  0  0  0  0  0  0
  -17.1774    0.6793  -14.6847 C   0  0  0  0  0  0  0  0  0  0  0  0
  -21.8467    1.6344  -14.0997 C   0  0  0  0  0  0  0  0  0  0  0  0
  -20.4590    1.9390  -14.3481 N   0  0  0  0  0  0  0  0  0  0  0  0
  -19.6340    1.0402  -15.0026 C   0  0  0  0  0  0  0  0  0  0  0  0
  -20.0201   -0.0430  -15.4231 O   0  0  0  0  0  0  0  0  0  0  0  0
  -20.1453    2.8843  -14.1779 H   0  0  0  0  0  0  0  0  0  0  0  0
  -13.3689    0.3951  -14.7885 C   0  0  0  0  0  0  0  0  0  0  0  0
  -12.5384    0.8842  -13.5783 C   0  0  0  0  0  0  0  0  0  0  0  0
  -13.3086    1.6799  -12.6819 O   0  0  0  0  0  0  0  0  0  0  0  0
  -13.1736    2.6065  -12.9522 H   0  0  0  0  0  0  0  0  0  0  0  0
 25 26  1  0  0  0
 26 27  1  0  0  0
 26 29  1  0  0  0
 27 28  2  0  0  0
 27 18  1  0  0  0
 18 19  1  0  0  0
 18 24  2  0  0  0
 19 20  2  0  0  0
 20 21  1  0  0  0
 20 22  1  0  0  0
 22 23  2  0  0  0
 23  1  1  0  0  0
 23 24  1  0  0  0
  1 30  1  0  0  0
  1  2  1  0  0  0
 30 31  1  0  0  0
 31 32  1  0  0  0
 32 33  1  0  0  0
  2  3  1  0  0  0
  2 11  2  0  0  0
  3  4  2  0  0  0
  4  5  1  0  0  0
  5  6  1  0  0  0
  5 10  2  0  0  0
  6  7  2  0  0  0
  7  8  1  0  0  0
  8 12  1  0  0  0
  8  9  2  0  0  0
 12 13  1  0  0  0
 12 17  2  0  0  0
 13 14  2  0  0  0
 14 15  1  0  0  0
 15 16  1  0  0  0
 15 17  1  0  0  0
  9 10  1  0  0  0
 10 11  1  0  0  0
M  END
> <minimizedAffinity>
-8.61198

$$$$
