CHEMBL314995


 29 32  0  0  0  0  0  0  0  0999 V2000
  -29.6012   -7.9965   -8.1749 C   0  0  0  0  0  0  0  0  0  0  0  0
  -28.6523   -6.9965   -7.9906 C   0  0  0  0  0  0  0  0  0  0  0  0
  -27.5469   -7.2957   -8.7478 N   0  0  0  0  0  0  0  0  0  0  0  0
  -27.7775   -8.4472   -9.4425 C   0  0  0  0  0  0  0  0  0  0  0  0
  -29.0282   -8.9242   -9.1033 C   0  0  0  0  0  0  0  0  0  0  0  0
  -29.5856  -10.1739   -9.7102 C   0  0  0  0  0  0  0  0  0  0  0  0
  -28.4999  -10.9833  -10.4540 C   0  0  0  0  0  0  0  0  0  0  0  0
  -27.5526  -10.0891  -11.2748 C   0  0  0  0  0  0  0  0  0  0  0  0
  -26.8112   -9.0819  -10.3798 C   0  0  0  0  0  0  0  0  0  0  0  0
  -26.7091   -6.7331   -8.8099 H   0  0  0  0  0  0  0  0  0  0  0  0
  -28.6875   -5.7463   -7.3396 C   0  0  0  0  0  0  0  0  0  0  0  0
  -28.5993   -5.5421   -6.0204 C   0  0  0  0  0  0  0  0  0  0  0  0
  -28.3594   -6.5089   -4.8855 C   0  0  0  0  0  0  0  0  0  0  0  0
  -28.1577   -7.7038   -4.9363 O   0  0  0  0  0  0  0  0  0  0  0  0
  -28.3844   -5.7165   -3.7381 N   0  0  0  0  0  0  0  0  0  0  0  0
  -28.6100   -4.3756   -4.0423 C   0  0  0  0  0  0  0  0  0  0  0  0
  -28.7017   -3.3143   -3.1610 C   0  0  0  0  0  0  0  0  0  0  0  0
  -28.9477   -2.0460   -3.7019 C   0  0  0  0  0  0  0  0  0  0  0  0
  -29.0946   -1.8782   -5.0901 C   0  0  0  0  0  0  0  0  0  0  0  0
  -29.4383   -0.1571   -5.7971 Br  0  0  0  0  0  0  0  0  0  0  0  0
  -28.9965   -2.9618   -5.9630 C   0  0  0  0  0  0  0  0  0  0  0  0
  -28.7468   -4.2088   -5.4204 C   0  0  0  0  0  0  0  0  0  0  0  0
  -28.2521   -6.0989   -2.8134 H   0  0  0  0  0  0  0  0  0  0  0  0
  -30.9616   -8.0659   -7.5333 C   0  0  0  0  0  0  0  0  0  0  0  0
  -31.2185   -9.3909   -6.8125 C   0  0  0  0  0  0  0  0  0  0  0  0
  -33.1517  -10.8637   -6.7416 O   0  0  0  0  0  0  0  0  0  0  0  0
  -32.4216  -10.1125   -7.3662 C   0  0  0  0  0  0  0  0  0  0  0  0
  -32.6337   -9.8262   -8.6744 O   0  0  0  0  0  0  0  0  0  0  0  0
  -31.9791   -9.2120   -9.0571 H   0  0  0  0  0  0  0  0  0  0  0  0
 26 27  2  0  0  0
 27 28  1  0  0  0
 27 25  1  0  0  0
 28 29  1  0  0  0
 25 24  1  0  0  0
 24  1  1  0  0  0
  1  2  2  0  0  0
  1  5  1  0  0  0
  2 11  1  0  0  0
  2  3  1  0  0  0
 11 12  2  0  0  0
 12 13  1  0  0  0
 12 22  1  0  0  0
 13 14  2  0  0  0
 13 15  1  0  0  0
 15 16  1  0  0  0
 15 23  1  0  0  0
 16 17  1  0  0  0
 16 22  2  0  0  0
 17 18  2  0  0  0
 18 19  1  0  0  0
 19 20  1  0  0  0
 19 21  2  0  0  0
 21 22  1  0  0  0
  3  4  1  0  0  0
  3 10  1  0  0  0
  4  5  2  0  0  0
  4  9  1  0  0  0
  5  6  1  0  0  0
  6  7  1  0  0  0
  7  8  1  0  0  0
  8  9  1  0  0  0
M  END
> <minimizedAffinity>
-9.42081

$$$$
