CHEMBL2016897


 29 33  0  0  0  0  0  0  0  0999 V2000
  -26.9128   -1.9730   -9.7421 C   0  0  0  0  0  0  0  0  0  0  0  0
  -27.2435   -1.1693   -8.7422 N   0  0  0  0  0  0  0  0  0  0  0  0
  -27.7448   -1.9823   -7.7742 C   0  0  0  0  0  0  0  0  0  0  0  0
  -27.7330   -3.2931   -8.1663 C   0  0  0  0  0  0  0  0  0  0  0  0
  -27.2238   -3.2820   -9.4346 N   0  0  0  0  0  0  0  0  0  0  0  0
  -28.1445   -4.4461   -7.3396 C   0  0  0  0  0  0  0  0  0  0  0  0
  -28.9901   -4.0071   -6.2153 N   0  0  0  0  0  0  0  0  0  0  0  0
  -28.5940   -2.7435   -5.5715 C   0  0  0  0  0  0  0  0  0  0  0  0
  -28.2384   -1.5278   -6.4637 C   0  0  0  0  0  0  0  0  0  0  0  0
  -27.0678   -4.0761  -10.0523 H   0  0  0  0  0  0  0  0  0  0  0  0
  -28.1311   -2.2051  -12.3982 O   0  0  0  0  0  0  0  0  0  0  0  0
  -26.9811   -1.7756  -12.3049 C   0  0  0  0  0  0  0  0  0  0  0  0
  -26.2709   -1.4049  -13.4213 N   0  0  0  0  0  0  0  0  0  0  0  0
  -24.9468   -0.9442  -13.3817 C   0  0  0  0  0  0  0  0  0  0  0  0
  -24.2804   -0.6068  -14.5578 C   0  0  0  0  0  0  0  0  0  0  0  0
  -22.9535   -0.1713  -14.4967 C   0  0  0  0  0  0  0  0  0  0  0  0
  -22.2994   -0.0743  -13.2669 C   0  0  0  0  0  0  0  0  0  0  0  0
  -22.9711   -0.4045  -12.0903 C   0  0  0  0  0  0  0  0  0  0  0  0
  -24.2986   -0.8382  -12.1465 C   0  0  0  0  0  0  0  0  0  0  0  0
  -25.0215   -1.1915  -10.9369 C   0  0  0  0  0  0  0  0  0  0  0  0
  -26.2918   -1.6388  -10.9789 C   0  0  0  0  0  0  0  0  0  0  0  0
  -26.7504   -1.4988  -14.3083 H   0  0  0  0  0  0  0  0  0  0  0  0
  -30.3843   -4.4670   -6.2409 C   0  0  0  0  0  0  0  0  0  0  0  0
  -31.1456   -4.3721   -4.9128 C   0  0  0  0  0  0  0  0  0  0  0  0
  -30.8176   -5.5295   -3.9839 C   0  0  0  0  0  0  0  0  0  0  0  0
  -31.1502   -6.8237   -4.5794 N   0  0  0  0  0  0  0  0  0  0  0  0
  -30.5225   -7.0339   -5.8812 C   0  0  0  0  0  0  0  0  0  0  0  0
  -30.6511   -5.8576   -6.8544 C   0  0  0  0  0  0  0  0  0  0  0  0
  -32.1615   -6.8955   -4.6777 H   0  0  0  0  0  0  0  0  0  0  0  0
 11 12  2  0  0  0
 12 13  1  0  0  0
 12 21  1  0  0  0
 13 14  1  0  0  0
 13 22  1  0  0  0
 14 15  1  0  0  0
 14 19  2  0  0  0
 15 16  2  0  0  0
 16 17  1  0  0  0
 17 18  2  0  0  0
 18 19  1  0  0  0
 19 20  1  0  0  0
 20 21  2  0  0  0
 21  1  1  0  0  0
  1  2  2  0  0  0
  1  5  1  0  0  0
  2  3  1  0  0  0
  3  4  2  0  0  0
  3  9  1  0  0  0
  4  5  1  0  0  0
  4  6  1  0  0  0
  5 10  1  0  0  0
  6  7  1  0  0  0
  7 23  1  0  0  0
  7  8  1  0  0  0
 23 24  1  0  0  0
 23 28  1  0  0  0
 24 25  1  0  0  0
 25 26  1  0  0  0
 26 27  1  0  0  0
 26 29  1  0  0  0
 27 28  1  0  0  0
  8  9  1  0  0  0
M  END
> <minimizedAffinity>
-9.83580

$$$$
