CHEMBL3919709


 37 40  0  0  0  0  0  0  0  0999 V2000
  -24.7255  -11.3559   -5.4917 C   0  0  0  0  0  0  0  0  0  0  0  0
  -25.2667  -12.3324   -4.6353 C   0  0  0  0  0  0  0  0  0  0  0  0
  -26.5994  -12.3121   -4.3536 N   0  0  0  0  0  0  0  0  0  0  0  0
  -27.4212  -11.3707   -4.8931 C   0  0  0  0  0  0  0  0  0  0  0  0
  -28.7935  -11.3804   -4.6401 C   0  0  0  0  0  0  0  0  0  0  0  0
  -29.6250  -10.4346   -5.2560 C   0  0  0  0  0  0  0  0  0  0  0  0
  -29.0997   -9.4416   -6.1236 C   0  0  0  0  0  0  0  0  0  0  0  0
  -27.7023   -9.4238   -6.3238 C   0  0  0  0  0  0  0  0  0  0  0  0
  -26.8794  -10.3881   -5.7357 C   0  0  0  0  0  0  0  0  0  0  0  0
  -25.5506  -10.4060   -6.0048 N   0  0  0  0  0  0  0  0  0  0  0  0
  -20.0309  -10.5781   -8.4054 H   0  0  0  0  0  0  0  0  0  0  0  0
  -20.4110   -9.9560   -7.5633 C   0  0  0  0  0  0  0  0  0  0  0  0
  -19.5651   -9.6926   -6.8942 H   0  0  0  0  0  0  0  0  0  0  0  0
  -20.8512   -9.0293   -7.9748 H   0  0  0  0  0  0  0  0  0  0  0  0
  -21.4087  -10.7129   -6.8122 N   0  0  0  0  0  0  0  0  0  0  0  0
  -22.6925  -10.3642   -6.6518 C   0  0  0  0  0  0  0  0  0  0  0  0
  -23.3072  -11.3411   -5.8860 C   0  0  0  0  0  0  0  0  0  0  0  0
  -22.3135  -12.2706   -5.6140 C   0  0  0  0  0  0  0  0  0  0  0  0
  -21.1653  -11.8654   -6.1933 N   0  0  0  0  0  0  0  0  0  0  0  0
  -29.9933   -8.5320   -6.8251 N   0  0  0  0  0  0  0  0  0  0  0  0
  -29.9294   -7.1096   -6.5505 C   0  0  0  0  0  0  0  0  0  0  0  0
  -29.3731   -6.2437   -7.5146 C   0  0  0  0  0  0  0  0  0  0  0  0
  -29.3575   -4.8518   -7.3347 C   0  0  0  0  0  0  0  0  0  0  0  0
  -29.9030   -4.3074   -6.1713 C   0  0  0  0  0  0  0  0  0  0  0  0
  -30.4684   -5.1382   -5.1882 C   0  0  0  0  0  0  0  0  0  0  0  0
  -30.4739   -6.5261   -5.3812 C   0  0  0  0  0  0  0  0  0  0  0  0
  -28.8520   -4.0065   -8.2709 O   0  0  0  0  0  0  0  0  0  0  0  0
  -28.2243   -2.8051   -8.0070 C   0  0  0  0  0  0  0  0  0  0  0  0
  -31.0333   -4.6452   -4.0547 O   0  0  0  0  0  0  0  0  0  0  0  0
  -31.9479   -5.3027   -3.2566 C   0  0  0  0  0  0  0  0  0  0  0  0
  -30.8532   -9.0126   -7.9301 C   0  0  0  0  0  0  0  0  0  0  0  0
  -30.1375  -10.0330   -8.8326 C   0  0  0  0  0  0  0  0  0  0  0  0
  -29.7413   -9.4843  -10.1408 N   0  0  0  0  0  0  0  0  0  0  0  0
  -29.0986   -8.6708   -9.9817 H   0  0  0  0  0  0  0  0  0  0  0  0
  -28.9954  -10.5053  -10.9172 C   0  0  0  0  0  0  0  0  0  0  0  0
  -28.8004  -10.0765  -12.3840 C   0  0  0  0  0  0  0  0  0  0  0  0
  -27.6284  -10.7750  -10.2831 C   0  0  0  0  0  0  0  0  0  0  0  0
 11 12  1  0  0  0
 12 13  1  0  0  0
 12 14  1  0  0  0
 12 15  1  0  0  0
 15 16  1  0  0  0
 15 19  1  0  0  0
 16 17  2  0  0  0
 17  1  1  0  0  0
 17 18  1  0  0  0
  1  2  1  0  0  0
  1 10  2  0  0  0
  2  3  2  0  0  0
  3  4  1  0  0  0
  4  5  1  0  0  0
  4  9  2  0  0  0
  5  6  2  0  0  0
  6  7  1  0  0  0
  7 20  1  0  0  0
  7  8  2  0  0  0
 20 31  1  0  0  0
 20 21  1  0  0  0
 31 32  1  0  0  0
 32 33  1  0  0  0
 33 35  1  0  0  0
 33 34  1  0  0  0
 35 36  1  0  0  0
 35 37  1  0  0  0
 21 22  1  0  0  0
 21 26  2  0  0  0
 22 23  2  0  0  0
 23 27  1  0  0  0
 23 24  1  0  0  0
 27 28  1  0  0  0
 24 25  2  0  0  0
 25 29  1  0  0  0
 25 26  1  0  0  0
 29 30  1  0  0  0
  8  9  1  0  0  0
  9 10  1  0  0  0
 18 19  2  0  0  0
M  ISO 1  11   2
M  ISO 1  13   2
M  ISO 1  14   2
M  END
> <minimizedAffinity>
-7.45283

$$$$
