CHEMBL1253838


 37 40  0  0  0  0  0  0  0  0999 V2000
  -29.9787   -9.3212   -7.1548 C   0  0  0  0  0  0  0  0  0  0  0  0
  -31.1467   -8.5643   -7.2768 C   0  0  0  0  0  0  0  0  0  0  0  0
  -31.2861   -7.3561   -6.5963 C   0  0  0  0  0  0  0  0  0  0  0  0
  -30.2971   -6.8962   -5.7256 C   0  0  0  0  0  0  0  0  0  0  0  0
  -29.1631   -7.7037   -5.5456 C   0  0  0  0  0  0  0  0  0  0  0  0
  -27.9096   -7.2376   -4.4395 Cl  0  0  0  0  0  0  0  0  0  0  0  0
  -29.0053   -8.9116   -6.2484 C   0  0  0  0  0  0  0  0  0  0  0  0
  -30.3995   -5.6361   -5.0677 N   0  0  0  0  0  0  0  0  0  0  0  0
  -29.8004   -4.4559   -5.4731 C   0  0  0  0  0  0  0  0  0  0  0  0
  -29.2078   -4.2944   -6.5345 O   0  0  0  0  0  0  0  0  0  0  0  0
  -29.8946   -3.4609   -4.5095 N   0  0  0  0  0  0  0  0  0  0  0  0
  -31.0548   -5.5874   -4.2974 H   0  0  0  0  0  0  0  0  0  0  0  0
  -29.8659   -3.7963   -3.5572 H   0  0  0  0  0  0  0  0  0  0  0  0
  -29.3295   -2.1834   -4.7424 C   0  0  0  0  0  0  0  0  0  0  0  0
  -27.9592   -2.0011   -4.5368 C   0  0  0  0  0  0  0  0  0  0  0  0
  -27.3676   -0.7737   -4.8343 C   0  0  0  0  0  0  0  0  0  0  0  0
  -28.1450    0.2957   -5.2825 C   0  0  0  0  0  0  0  0  0  0  0  0
  -29.5292    0.1464   -5.4424 C   0  0  0  0  0  0  0  0  0  0  0  0
  -30.1091   -1.1074   -5.1865 C   0  0  0  0  0  0  0  0  0  0  0  0
  -30.3946    1.3017   -5.8815 C   0  0  0  0  0  0  0  0  0  0  0  0
  -29.7927    2.1103   -6.8014 F   0  0  0  0  0  0  0  0  0  0  0  0
  -31.5688    0.9097   -6.4487 F   0  0  0  0  0  0  0  0  0  0  0  0
  -30.7334    2.1193   -4.8447 F   0  0  0  0  0  0  0  0  0  0  0  0
  -29.7718  -10.4928   -7.8525 O   0  0  0  0  0  0  0  0  0  0  0  0
  -27.0504  -11.8982   -7.2842 N   0  0  0  0  0  0  0  0  0  0  0  0
  -25.7254  -12.2326   -7.4486 C   0  0  0  0  0  0  0  0  0  0  0  0
  -25.3347  -11.8182   -8.7029 C   0  0  0  0  0  0  0  0  0  0  0  0
  -26.4424  -11.1738   -9.2943 C   0  0  0  0  0  0  0  0  0  0  0  0
  -26.5354  -10.6300  -10.5246 N   0  0  0  0  0  0  0  0  0  0  0  0
  -27.7164  -10.0556  -10.7660 C   0  0  0  0  0  0  0  0  0  0  0  0
  -28.7638   -9.9559   -9.9334 N   0  0  0  0  0  0  0  0  0  0  0  0
  -28.6794  -10.5468   -8.7186 C   0  0  0  0  0  0  0  0  0  0  0  0
  -27.4885  -11.1769   -8.3746 C   0  0  0  0  0  0  0  0  0  0  0  0
  -27.8477  -12.3169   -6.1440 C   0  0  0  0  0  0  0  0  0  0  0  0
  -27.0681  -12.2628   -4.8334 C   0  0  0  0  0  0  0  0  0  0  0  0
  -25.7747  -10.6633   -3.6970 C   0  0  0  0  0  0  0  0  0  0  0  0
  -27.0022  -10.9123   -4.3745 O   0  0  0  0  0  0  0  0  0  0  0  0
 36 37  1  0  0  0
 37 35  1  0  0  0
 35 34  1  0  0  0
 34 25  1  0  0  0
 25 26  1  0  0  0
 25 33  1  0  0  0
 26 27  2  0  0  0
 27 28  1  0  0  0
 28 29  1  0  0  0
 28 33  2  0  0  0
 29 30  2  0  0  0
 30 31  1  0  0  0
 31 32  2  0  0  0
 32 24  1  0  0  0
 32 33  1  0  0  0
 24  1  1  0  0  0
  1  2  1  0  0  0
  1  7  2  0  0  0
  2  3  2  0  0  0
  3  4  1  0  0  0
  4  8  1  0  0  0
  4  5  2  0  0  0
  8  9  1  0  0  0
  8 12  1  0  0  0
  9 10  2  0  0  0
  9 11  1  0  0  0
 11 14  1  0  0  0
 11 13  1  0  0  0
 14 15  1  0  0  0
 14 19  2  0  0  0
 15 16  2  0  0  0
 16 17  1  0  0  0
 17 18  2  0  0  0
 18 20  1  0  0  0
 18 19  1  0  0  0
 20 21  1  0  0  0
 20 22  1  0  0  0
 20 23  1  0  0  0
  5  6  1  0  0  0
  5  7  1  0  0  0
M  END
> <minimizedAffinity>
-8.54379

$$$$
