CHEMBL3937092


 34 37  0  0  0  0  0  0  0  0999 V2000
  -28.5822   -8.8796   -4.4529 C   0  0  0  0  0  0  0  0  0  0  0  0
  -29.8271   -8.2278   -4.2604 C   0  0  0  0  0  0  0  0  0  0  0  0
  -29.9752   -6.8626   -4.1394 C   0  0  0  0  0  0  0  0  0  0  0  0
  -31.2058   -6.3635   -3.9797 N   0  0  0  0  0  0  0  0  0  0  0  0
  -31.2999   -5.0329   -3.8839 C   0  0  0  0  0  0  0  0  0  0  0  0
  -30.2781   -4.1792   -3.9454 N   0  0  0  0  0  0  0  0  0  0  0  0
  -29.0508   -4.7028   -4.1202 C   0  0  0  0  0  0  0  0  0  0  0  0
  -28.8329   -6.0820   -4.2018 C   0  0  0  0  0  0  0  0  0  0  0  0
  -27.5744   -6.7046   -4.3288 C   0  0  0  0  0  0  0  0  0  0  0  0
  -27.4269   -8.0919   -4.4652 C   0  0  0  0  0  0  0  0  0  0  0  0
  -27.9380   -3.8343   -4.2364 N   0  0  0  0  0  0  0  0  0  0  0  0
  -27.1111   -4.3818   -4.4799 H   0  0  0  0  0  0  0  0  0  0  0  0
  -27.9900   -2.5884   -4.8786 C   0  0  0  0  0  0  0  0  0  0  0  0
  -28.2422   -1.4283   -4.1372 C   0  0  0  0  0  0  0  0  0  0  0  0
  -28.3945   -0.1949   -4.7707 C   0  0  0  0  0  0  0  0  0  0  0  0
  -28.2864   -0.1170   -6.1595 C   0  0  0  0  0  0  0  0  0  0  0  0
  -28.5460    1.4275   -6.8892 Cl  0  0  0  0  0  0  0  0  0  0  0  0
  -27.9951   -1.2610   -6.9054 C   0  0  0  0  0  0  0  0  0  0  0  0
  -27.8415   -1.2329   -8.6275 Cl  0  0  0  0  0  0  0  0  0  0  0  0
  -27.8361   -2.4945   -6.2659 C   0  0  0  0  0  0  0  0  0  0  0  0
  -26.1092   -8.3813   -4.6108 O   0  0  0  0  0  0  0  0  0  0  0  0
  -25.3517   -9.1317   -3.6875 C   0  0  0  0  0  0  0  0  0  0  0  0
  -28.5216  -10.2516   -4.6134 O   0  0  0  0  0  0  0  0  0  0  0  0
  -29.3391  -10.7440   -5.6984 C   0  0  0  0  0  0  0  0  0  0  0  0
  -28.1781  -11.2814   -9.3426 N   0  0  0  0  0  0  0  0  0  0  0  0
  -29.0916  -10.2933   -9.9621 C   0  0  0  0  0  0  0  0  0  0  0  0
  -29.3740   -9.0376   -9.0990 C   0  0  0  0  0  0  0  0  0  0  0  0
  -29.8627   -9.3267   -7.7324 N   0  0  0  0  0  0  0  0  0  0  0  0
  -28.8917  -10.2897   -7.0958 C   0  0  0  0  0  0  0  0  0  0  0  0
  -28.6368  -11.5552   -7.9679 C   0  0  0  0  0  0  0  0  0  0  0  0
  -25.7849  -11.7318   -8.7018 C   0  0  0  0  0  0  0  0  0  0  0  0
  -26.7830  -10.8206   -9.4122 C   0  0  0  0  0  0  0  0  0  0  0  0
  -31.2648   -9.7994   -7.7199 C   0  0  0  0  0  0  0  0  0  0  0  0
  -32.2970   -8.7460   -7.3153 C   0  0  0  0  0  0  0  0  0  0  0  0
 31 32  1  0  0  0
 32 25  1  0  0  0
 25 26  1  0  0  0
 25 30  1  0  0  0
 26 27  1  0  0  0
 27 28  1  0  0  0
 28 33  1  0  0  0
 28 29  1  0  0  0
 33 34  1  0  0  0
 29 24  1  0  0  0
 29 30  1  0  0  0
 24 23  1  0  0  0
 23  1  1  0  0  0
  1  2  1  0  0  0
  1 10  2  0  0  0
  2  3  2  0  0  0
  3  4  1  0  0  0
  3  8  1  0  0  0
  4  5  2  0  0  0
  5  6  1  0  0  0
  6  7  2  0  0  0
  7 11  1  0  0  0
  7  8  1  0  0  0
 11 13  1  0  0  0
 11 12  1  0  0  0
 13 14  1  0  0  0
 13 20  2  0  0  0
 14 15  2  0  0  0
 15 16  1  0  0  0
 16 17  1  0  0  0
 16 18  2  0  0  0
 18 19  1  0  0  0
 18 20  1  0  0  0
  8  9  2  0  0  0
  9 10  1  0  0  0
 10 21  1  0  0  0
 21 22  1  0  0  0
M  END
> <minimizedAffinity>
-7.30921

$$$$
