CHEMBL233454


 28 31  0  0  0  0  0  0  0  0999 V2000
  -28.2978   -1.9830   -6.9044 C   0  0  0  0  0  0  0  0  0  0  0  0
  -27.7168   -0.9457   -7.5740 C   0  0  0  0  0  0  0  0  0  0  0  0
  -27.1995   -1.0702   -8.7964 N   0  0  0  0  0  0  0  0  0  0  0  0
  -27.2648   -2.2580   -9.4057 C   0  0  0  0  0  0  0  0  0  0  0  0
  -27.7682   -3.3458   -8.8085 N   0  0  0  0  0  0  0  0  0  0  0  0
  -28.2943   -3.2101   -7.5611 C   0  0  0  0  0  0  0  0  0  0  0  0
  -28.8962   -4.4434   -7.0065 C   0  0  0  0  0  0  0  0  0  0  0  0
  -29.9526   -5.1230   -7.6395 C   0  0  0  0  0  0  0  0  0  0  0  0
  -30.4400   -6.3366   -7.1548 C   0  0  0  0  0  0  0  0  0  0  0  0
  -29.9165   -6.8759   -5.9879 C   0  0  0  0  0  0  0  0  0  0  0  0
  -28.9050   -6.2049   -5.3079 C   0  0  0  0  0  0  0  0  0  0  0  0
  -28.4002   -5.0028   -5.8122 C   0  0  0  0  0  0  0  0  0  0  0  0
  -29.3621   -1.5389   -4.5993 N   0  0  0  0  0  0  0  0  0  0  0  0
  -28.8748   -1.7154   -5.6417 C   0  0  0  0  0  0  0  0  0  0  0  0
  -26.7892   -2.3748  -10.7078 N   0  0  0  0  0  0  0  0  0  0  0  0
  -27.1636   -3.1888  -11.1706 H   0  0  0  0  0  0  0  0  0  0  0  0
  -25.6909   -1.7212  -11.2872 C   0  0  0  0  0  0  0  0  0  0  0  0
  -24.4514   -2.3562  -11.3047 C   0  0  0  0  0  0  0  0  0  0  0  0
  -23.3013   -1.6655  -11.7014 C   0  0  0  0  0  0  0  0  0  0  0  0
  -23.3721   -0.3581  -12.2048 C   0  0  0  0  0  0  0  0  0  0  0  0
  -24.6146    0.2767  -12.2120 C   0  0  0  0  0  0  0  0  0  0  0  0
  -25.7511   -0.3972  -11.7515 C   0  0  0  0  0  0  0  0  0  0  0  0
  -22.1205    0.3484  -12.6781 C   0  0  0  0  0  0  0  0  0  0  0  0
  -22.1223    0.9628  -14.0097 N   0  0  0  0  0  0  0  0  0  0  0  0
  -20.9791    0.6656  -14.8663 C   0  0  0  0  0  0  0  0  0  0  0  0
  -20.0902    1.8915  -14.7889 C   0  0  0  0  0  0  0  0  0  0  0  0
  -21.0724    3.0376  -14.6314 C   0  0  0  0  0  0  0  0  0  0  0  0
  -22.3441    2.4068  -14.0702 C   0  0  0  0  0  0  0  0  0  0  0  0
 13 14  3  0  0  0
 14  1  1  0  0  0
  1  2  1  0  0  0
  1  6  2  0  0  0
  2  3  2  0  0  0
  3  4  1  0  0  0
  4 15  1  0  0  0
  4  5  2  0  0  0
 15 17  1  0  0  0
 15 16  1  0  0  0
 17 18  1  0  0  0
 17 22  2  0  0  0
 18 19  2  0  0  0
 19 20  1  0  0  0
 20 23  1  0  0  0
 20 21  2  0  0  0
 23 24  1  0  0  0
 24 25  1  0  0  0
 24 28  1  0  0  0
 25 26  1  0  0  0
 26 27  1  0  0  0
 27 28  1  0  0  0
 21 22  1  0  0  0
  5  6  1  0  0  0
  6  7  1  0  0  0
  7  8  1  0  0  0
  7 12  2  0  0  0
  8  9  2  0  0  0
  9 10  1  0  0  0
 10 11  2  0  0  0
 11 12  1  0  0  0
M  END
> <minimizedAffinity>
-8.93551

$$$$
