CHEMBL1807480


 40 44  0  0  0  0  0  0  0  0999 V2000
  -27.1768   -2.0886   -9.1776 C   0  0  0  0  0  0  0  0  0  0  0  0
  -27.2115   -1.9855   -7.8082 C   0  0  0  0  0  0  0  0  0  0  0  0
  -28.3850   -2.6672   -7.3920 C   0  0  0  0  0  0  0  0  0  0  0  0
  -29.0562   -3.1381   -8.4556 N   0  0  0  0  0  0  0  0  0  0  0  0
  -28.3142   -2.7722   -9.5102 N   0  0  0  0  0  0  0  0  0  0  0  0
  -28.6336   -3.0559  -10.4287 H   0  0  0  0  0  0  0  0  0  0  0  0
  -28.8746   -2.8369   -6.0256 C   0  0  0  0  0  0  0  0  0  0  0  0
  -29.6873   -1.8638   -5.4223 C   0  0  0  0  0  0  0  0  0  0  0  0
  -30.2047   -2.0681   -4.1420 C   0  0  0  0  0  0  0  0  0  0  0  0
  -29.9180   -3.2476   -3.4581 C   0  0  0  0  0  0  0  0  0  0  0  0
  -29.0857   -4.2037   -4.0385 C   0  0  0  0  0  0  0  0  0  0  0  0
  -28.5613   -4.0013   -5.3116 C   0  0  0  0  0  0  0  0  0  0  0  0
  -28.8128   -5.4097   -3.3401 N   0  0  0  0  0  0  0  0  0  0  0  0
  -27.8402   -5.7071   -3.2900 H   0  0  0  0  0  0  0  0  0  0  0  0
  -29.8688   -6.7152   -3.5260 S   0  0  0  0  0  0  0  0  0  0  0  0
  -29.2462   -7.8345   -2.8517 O   0  0  0  0  0  0  0  0  0  0  0  0
  -31.2156   -6.2967   -3.2009 O   0  0  0  0  0  0  0  0  0  0  0  0
  -29.8087   -7.0667   -5.2752 C   0  0  0  0  0  0  0  0  0  0  0  0
  -28.6521   -7.6379   -5.8185 C   0  0  0  0  0  0  0  0  0  0  0  0
  -28.6308   -8.0107   -7.1648 C   0  0  0  0  0  0  0  0  0  0  0  0
  -29.7629   -7.8218   -7.9586 C   0  0  0  0  0  0  0  0  0  0  0  0
  -30.9176   -7.2567   -7.4122 C   0  0  0  0  0  0  0  0  0  0  0  0
  -30.9463   -6.8822   -6.0667 C   0  0  0  0  0  0  0  0  0  0  0  0
  -27.5911   -1.6709  -11.9366 O   0  0  0  0  0  0  0  0  0  0  0  0
  -26.4930   -1.4320  -11.4615 C   0  0  0  0  0  0  0  0  0  0  0  0
  -26.2149   -1.6202  -10.0644 N   0  0  0  0  0  0  0  0  0  0  0  0
  -25.3311   -1.2983   -9.6931 H   0  0  0  0  0  0  0  0  0  0  0  0
  -25.4159   -0.8458  -12.2813 C   0  0  0  0  0  0  0  0  0  0  0  0
  -25.2297   -1.3644  -13.5669 C   0  0  0  0  0  0  0  0  0  0  0  0
  -24.1606   -0.9203  -14.3480 C   0  0  0  0  0  0  0  0  0  0  0  0
  -23.2579    0.0247  -13.8477 C   0  0  0  0  0  0  0  0  0  0  0  0
  -23.4828    0.5707  -12.5699 C   0  0  0  0  0  0  0  0  0  0  0  0
  -24.5585    0.1398  -11.7850 C   0  0  0  0  0  0  0  0  0  0  0  0
  -21.9798    0.3295  -14.5994 C   0  0  0  0  0  0  0  0  0  0  0  0
  -21.1259    1.3996  -14.1173 N   0  0  0  0  0  0  0  0  0  0  0  0
  -21.5202    2.7796  -14.3907 C   0  0  0  0  0  0  0  0  0  0  0  0
  -20.7405    3.4688  -15.5249 C   0  0  0  0  0  0  0  0  0  0  0  0
  -19.3265    3.2700  -15.4207 O   0  0  0  0  0  0  0  0  0  0  0  0
  -19.0166    1.8731  -15.3896 C   0  0  0  0  0  0  0  0  0  0  0  0
  -19.6802    1.1945  -14.1871 C   0  0  0  0  0  0  0  0  0  0  0  0
 24 25  2  0  0  0
 25 26  1  0  0  0
 25 28  1  0  0  0
 26  1  1  0  0  0
 26 27  1  0  0  0
  1  2  2  0  0  0
  1  5  1  0  0  0
  2  3  1  0  0  0
  3  7  1  0  0  0
  3  4  2  0  0  0
  7  8  1  0  0  0
  7 12  2  0  0  0
  8  9  2  0  0  0
  9 10  1  0  0  0
 10 11  2  0  0  0
 11 13  1  0  0  0
 11 12  1  0  0  0
 13 15  1  0  0  0
 13 14  1  0  0  0
 15 16  2  0  0  0
 15 17  2  0  0  0
 15 18  1  0  0  0
 18 19  1  0  0  0
 18 23  2  0  0  0
 19 20  2  0  0  0
 20 21  1  0  0  0
 21 22  2  0  0  0
 22 23  1  0  0  0
  4  5  1  0  0  0
  5  6  1  0  0  0
 28 29  1  0  0  0
 28 33  2  0  0  0
 29 30  2  0  0  0
 30 31  1  0  0  0
 31 34  1  0  0  0
 31 32  2  0  0  0
 34 35  1  0  0  0
 35 36  1  0  0  0
 35 40  1  0  0  0
 36 37  1  0  0  0
 37 38  1  0  0  0
 38 39  1  0  0  0
 39 40  1  0  0  0
 32 33  1  0  0  0
M  END
> <minimizedAffinity>
-11.01905

$$$$
