CHEMBL240209


 33 35  0  0  0  0  0  0  0  0999 V2000
  -26.0512   -1.6479  -10.9711 C   0  0  0  0  0  0  0  0  0  0  0  0
  -25.0801   -1.5800  -10.2242 O   0  0  0  0  0  0  0  0  0  0  0  0
  -27.3487   -1.8767  -10.5245 N   0  0  0  0  0  0  0  0  0  0  0  0
  -28.0729   -1.8662  -11.2323 H   0  0  0  0  0  0  0  0  0  0  0  0
  -28.2169   -2.3308  -12.9562 C   0  0  0  0  0  0  0  0  0  0  0  0
  -26.9049   -1.8081  -13.2846 N   0  0  0  0  0  0  0  0  0  0  0  0
  -26.6233   -1.5478  -14.5750 N   0  0  0  0  0  0  0  0  0  0  0  0
  -25.3690   -1.1101  -14.5346 C   0  0  0  0  0  0  0  0  0  0  0  0
  -24.8408   -1.0772  -13.2210 C   0  0  0  0  0  0  0  0  0  0  0  0
  -25.8868   -1.4840  -12.4023 C   0  0  0  0  0  0  0  0  0  0  0  0
  -23.5617   -0.7068  -12.9376 N   0  0  0  0  0  0  0  0  0  0  0  0
  -23.3909   -0.1212  -12.1200 H   0  0  0  0  0  0  0  0  0  0  0  0
  -22.5052   -0.6143  -13.9301 C   0  0  0  0  0  0  0  0  0  0  0  0
  -21.9357    0.7689  -14.1090 C   0  0  0  0  0  0  0  0  0  0  0  0
  -20.6817    0.8975  -14.7227 C   0  0  0  0  0  0  0  0  0  0  0  0
  -20.2026    2.1605  -15.0210 C   0  0  0  0  0  0  0  0  0  0  0  0
  -20.8755    3.2949  -14.7488 N   0  0  0  0  0  0  0  0  0  0  0  0
  -22.0861    3.1573  -14.1652 C   0  0  0  0  0  0  0  0  0  0  0  0
  -22.6551    1.9348  -13.8346 C   0  0  0  0  0  0  0  0  0  0  0  0
  -27.7334   -2.0664   -9.1749 C   0  0  0  0  0  0  0  0  0  0  0  0
  -27.9714   -3.3293   -8.6354 C   0  0  0  0  0  0  0  0  0  0  0  0
  -28.3800   -3.4867   -7.3115 C   0  0  0  0  0  0  0  0  0  0  0  0
  -28.5513   -2.3823   -6.4634 C   0  0  0  0  0  0  0  0  0  0  0  0
  -28.2705   -1.0934   -6.9735 C   0  0  0  0  0  0  0  0  0  0  0  0
  -27.8943   -0.9528   -8.3388 C   0  0  0  0  0  0  0  0  0  0  0  0
  -29.0529   -2.6302   -5.0543 C   0  0  0  0  0  0  0  0  0  0  0  0
  -28.1835   -2.2036   -4.0937 F   0  0  0  0  0  0  0  0  0  0  0  0
  -30.2250   -1.9965   -4.7918 F   0  0  0  0  0  0  0  0  0  0  0  0
  -29.2453   -3.9527   -4.8036 F   0  0  0  0  0  0  0  0  0  0  0  0
  -28.3165    0.1599   -6.1166 C   0  0  0  0  0  0  0  0  0  0  0  0
  -29.4674    0.3478   -5.4258 F   0  0  0  0  0  0  0  0  0  0  0  0
  -27.3226    0.1646   -5.1839 F   0  0  0  0  0  0  0  0  0  0  0  0
  -28.1360    1.2902   -6.8527 F   0  0  0  0  0  0  0  0  0  0  0  0
  5  6  1  0  0  0
  6  7  1  0  0  0
  6 10  1  0  0  0
  7  8  2  0  0  0
  8  9  1  0  0  0
  9 11  1  0  0  0
  9 10  2  0  0  0
 11 13  1  0  0  0
 11 12  1  0  0  0
 13 14  1  0  0  0
 14 15  1  0  0  0
 14 19  2  0  0  0
 15 16  2  0  0  0
 16 17  1  0  0  0
 17 18  2  0  0  0
 18 19  1  0  0  0
 10  1  1  0  0  0
  1  2  2  0  0  0
  1  3  1  0  0  0
  3 20  1  0  0  0
  3  4  1  0  0  0
 20 21  1  0  0  0
 20 25  2  0  0  0
 21 22  2  0  0  0
 22 23  1  0  0  0
 23 26  1  0  0  0
 23 24  2  0  0  0
 26 27  1  0  0  0
 26 28  1  0  0  0
 26 29  1  0  0  0
 24 30  1  0  0  0
 24 25  1  0  0  0
 30 31  1  0  0  0
 30 32  1  0  0  0
 30 33  1  0  0  0
M  END
> <minimizedAffinity>
-9.96799

$$$$
