CHEMBL3910155


 34 36  0  0  0  0  0  0  0  0999 V2000
  -20.3660    1.2601  -15.0369 C   0  0  0  0  0  0  0  0  0  0  0  0
  -20.4696    2.6331  -15.3090 C   0  0  0  0  0  0  0  0  0  0  0  0
  -19.3404    3.4439  -15.3963 C   0  0  0  0  0  0  0  0  0  0  0  0
  -18.0836    2.9013  -15.1760 C   0  0  0  0  0  0  0  0  0  0  0  0
  -17.9561    1.5473  -14.8453 C   0  0  0  0  0  0  0  0  0  0  0  0
  -19.0969    0.7301  -14.7553 C   0  0  0  0  0  0  0  0  0  0  0  0
  -23.3846   -0.6645  -14.1897 N   0  0  0  0  0  0  0  0  0  0  0  0
  -22.3944    0.2896  -14.0010 C   0  0  0  0  0  0  0  0  0  0  0  0
  -22.3071    0.9901  -12.9977 O   0  0  0  0  0  0  0  0  0  0  0  0
  -21.5069    0.4002  -15.0691 N   0  0  0  0  0  0  0  0  0  0  0  0
  -23.3943   -1.1772  -15.0571 H   0  0  0  0  0  0  0  0  0  0  0  0
  -21.8430    0.1184  -15.9759 H   0  0  0  0  0  0  0  0  0  0  0  0
  -27.5794   -1.9127  -10.4235 C   0  0  0  0  0  0  0  0  0  0  0  0
  -26.4923   -1.5982  -11.4085 C   0  0  0  0  0  0  0  0  0  0  0  0
  -25.2312   -1.2225  -10.9519 C   0  0  0  0  0  0  0  0  0  0  0  0
  -24.2096   -0.9183  -11.8569 C   0  0  0  0  0  0  0  0  0  0  0  0
  -24.4030   -0.9786  -13.2392 C   0  0  0  0  0  0  0  0  0  0  0  0
  -25.6704   -1.3688  -13.6984 C   0  0  0  0  0  0  0  0  0  0  0  0
  -26.7037   -1.6722  -12.7891 C   0  0  0  0  0  0  0  0  0  0  0  0
  -16.6307    1.0289  -14.6740 C   0  0  0  0  0  0  0  0  0  0  0  0
  -15.5869    0.4879  -14.4086 C   0  0  0  0  0  0  0  0  0  0  0  0
  -14.4248   -0.2263  -13.9709 C   0  0  0  0  0  0  0  0  0  0  0  0
  -13.1692    0.3720  -13.9410 C   0  0  0  0  0  0  0  0  0  0  0  0
  -12.0248   -0.2844  -13.6190 N   0  0  0  0  0  0  0  0  0  0  0  0
  -12.1456   -1.5960  -13.2893 C   0  0  0  0  0  0  0  0  0  0  0  0
  -13.3568   -2.2748  -13.2570 C   0  0  0  0  0  0  0  0  0  0  0  0
  -14.5142   -1.5746  -13.6209 C   0  0  0  0  0  0  0  0  0  0  0  0
  -13.3925   -3.7035  -12.8360 C   0  0  0  0  0  0  0  0  0  0  0  0
  -13.6332   -4.5398  -13.7014 O   0  0  0  0  0  0  0  0  0  0  0  0
  -13.2581   -4.0447  -11.4800 N   0  0  0  0  0  0  0  0  0  0  0  0
  -14.4703   -4.4721  -10.6307 S   0  0  0  0  0  0  0  0  0  0  0  0
  -15.4464   -3.0393  -10.2241 C   0  0  0  0  0  0  0  0  0  0  0  0
  -13.8143   -4.9155   -9.0369 C   0  0  0  0  0  0  0  0  0  0  0  0
  -15.3895   -5.5305  -11.0015 O   0  0  0  0  0  0  0  0  0  0  0  0
 13 14  1  0  0  0
 14 15  1  0  0  0
 14 19  2  0  0  0
 15 16  2  0  0  0
 16 17  1  0  0  0
 17  7  1  0  0  0
 17 18  2  0  0  0
  7  8  1  0  0  0
  7 11  1  0  0  0
  8  9  2  0  0  0
  8 10  1  0  0  0
 10  1  1  0  0  0
 10 12  1  0  0  0
  1  2  1  0  0  0
  1  6  2  0  0  0
  2  3  2  0  0  0
  3  4  1  0  0  0
  4  5  2  0  0  0
  5 20  1  0  0  0
  5  6  1  0  0  0
 20 21  3  0  0  0
 21 22  1  0  0  0
 22 23  1  0  0  0
 22 27  2  0  0  0
 23 24  2  0  0  0
 24 25  1  0  0  0
 25 26  2  0  0  0
 26 28  1  0  0  0
 26 27  1  0  0  0
 28 29  2  0  0  0
 28 30  1  0  0  0
 30 31  2  0  0  0
 31 32  1  0  0  0
 31 33  1  0  0  0
 31 34  2  0  0  0
 18 19  1  0  0  0
M  END
> <minimizedAffinity>
-9.74557

$$$$
