CHEMBL3628906


 34 38  0  0  0  0  0  0  0  0999 V2000
  -27.5838   -1.1233   -6.0072 C   0  0  0  0  0  0  0  0  0  0  0  0
  -28.1037   -2.4156   -6.5780 C   0  0  0  0  0  0  0  0  0  0  0  0
  -28.4327   -3.4216   -5.6508 C   0  0  0  0  0  0  0  0  0  0  0  0
  -29.1020   -4.5853   -6.0283 C   0  0  0  0  0  0  0  0  0  0  0  0
  -29.3503   -4.8088   -7.3746 C   0  0  0  0  0  0  0  0  0  0  0  0
  -28.9604   -3.8529   -8.3161 C   0  0  0  0  0  0  0  0  0  0  0  0
  -28.3295   -2.6489   -7.9509 C   0  0  0  0  0  0  0  0  0  0  0  0
  -27.9164   -1.6944   -8.9267 N   0  0  0  0  0  0  0  0  0  0  0  0
  -27.1554   -1.9660  -10.0520 C   0  0  0  0  0  0  0  0  0  0  0  0
  -26.7711   -3.0814  -10.3989 O   0  0  0  0  0  0  0  0  0  0  0  0
  -26.7974   -0.8220  -10.7503 N   0  0  0  0  0  0  0  0  0  0  0  0
  -28.1522   -0.7308   -8.7514 H   0  0  0  0  0  0  0  0  0  0  0  0
  -26.6276   -0.0159  -10.1646 H   0  0  0  0  0  0  0  0  0  0  0  0
  -25.9907   -0.9147  -11.9195 C   0  0  0  0  0  0  0  0  0  0  0  0
  -26.4968   -1.5956  -13.0346 C   0  0  0  0  0  0  0  0  0  0  0  0
  -25.7627   -1.6406  -14.2235 C   0  0  0  0  0  0  0  0  0  0  0  0
  -24.4968   -1.0590  -14.2913 C   0  0  0  0  0  0  0  0  0  0  0  0
  -23.9791   -0.4176  -13.1715 C   0  0  0  0  0  0  0  0  0  0  0  0
  -22.2438    0.3412  -13.2529 Br  0  0  0  0  0  0  0  0  0  0  0  0
  -24.7197   -0.3311  -11.9906 C   0  0  0  0  0  0  0  0  0  0  0  0
  -29.5210   -5.5315   -5.1164 O   0  0  0  0  0  0  0  0  0  0  0  0
  -28.7545   -6.6961   -5.0244 C   0  0  0  0  0  0  0  0  0  0  0  0
  -27.5651   -6.6479   -4.3734 N   0  0  0  0  0  0  0  0  0  0  0  0
  -26.8032   -7.7432   -4.3467 C   0  0  0  0  0  0  0  0  0  0  0  0
  -27.0986   -8.9365   -4.8527 N   0  0  0  0  0  0  0  0  0  0  0  0
  -28.3092   -8.9687   -5.4337 C   0  0  0  0  0  0  0  0  0  0  0  0
  -28.8915  -10.4248   -6.0915 S   0  0  0  0  0  0  0  0  0  0  0  0
  -30.3263   -9.6816   -6.6075 C   0  0  0  0  0  0  0  0  0  0  0  0
  -30.3723   -8.3295   -6.3094 C   0  0  0  0  0  0  0  0  0  0  0  0
  -29.1972   -7.9078   -5.5796 C   0  0  0  0  0  0  0  0  0  0  0  0
  -31.5286   -7.4771   -6.7512 C   0  0  0  0  0  0  0  0  0  0  0  0
  -32.7564   -8.3254   -7.1314 C   0  0  0  0  0  0  0  0  0  0  0  0
  -32.3748   -9.5249   -8.0108 C   0  0  0  0  0  0  0  0  0  0  0  0
  -31.4063  -10.4658   -7.2847 C   0  0  0  0  0  0  0  0  0  0  0  0
  1  2  1  0  0  0
  2  3  1  0  0  0
  2  7  2  0  0  0
  3  4  2  0  0  0
  4 21  1  0  0  0
  4  5  1  0  0  0
 21 22  1  0  0  0
 22 23  1  0  0  0
 22 30  2  0  0  0
 23 24  2  0  0  0
 24 25  1  0  0  0
 25 26  2  0  0  0
 26 27  1  0  0  0
 26 30  1  0  0  0
 27 28  1  0  0  0
 28 29  2  0  0  0
 28 34  1  0  0  0
 29 30  1  0  0  0
 29 31  1  0  0  0
 31 32  1  0  0  0
 32 33  1  0  0  0
 33 34  1  0  0  0
  5  6  2  0  0  0
  6  7  1  0  0  0
  7  8  1  0  0  0
  8  9  1  0  0  0
  8 12  1  0  0  0
  9 10  2  0  0  0
  9 11  1  0  0  0
 11 14  1  0  0  0
 11 13  1  0  0  0
 14 15  1  0  0  0
 14 20  2  0  0  0
 15 16  2  0  0  0
 16 17  1  0  0  0
 17 18  2  0  0  0
 18 19  1  0  0  0
 18 20  1  0  0  0
M  END
> <minimizedAffinity>
-9.78906

$$$$
