CHEMBL305748


 34 38  0  0  0  0  0  0  0  0999 V2000
  -32.3288   -6.8752   -5.5923 N   0  0  0  0  0  0  0  0  0  0  0  0
  -32.1188   -7.9010   -6.5047 C   0  0  0  0  0  0  0  0  0  0  0  0
  -33.1643   -8.7345   -6.6595 N   0  0  0  0  0  0  0  0  0  0  0  0
  -33.0560   -9.7380   -7.5394 C   0  0  0  0  0  0  0  0  0  0  0  0
  -32.0080  -10.0320   -8.3163 N   0  0  0  0  0  0  0  0  0  0  0  0
  -30.9712   -9.1945   -8.1226 C   0  0  0  0  0  0  0  0  0  0  0  0
  -30.9342   -8.1266   -7.2455 C   0  0  0  0  0  0  0  0  0  0  0  0
  -29.6158   -7.5508   -7.3663 C   0  0  0  0  0  0  0  0  0  0  0  0
  -28.8793   -8.3265   -8.2827 C   0  0  0  0  0  0  0  0  0  0  0  0
  -29.7635   -9.2844   -8.7840 N   0  0  0  0  0  0  0  0  0  0  0  0
  -33.3102   -6.8361   -5.3390 H   0  0  0  0  0  0  0  0  0  0  0  0
  -31.9212   -5.9894   -5.8641 H   0  0  0  0  0  0  0  0  0  0  0  0
  -29.0810   -6.3888   -6.6485 C   0  0  0  0  0  0  0  0  0  0  0  0
  -29.1551   -5.1248   -7.2378 C   0  0  0  0  0  0  0  0  0  0  0  0
  -28.5820   -4.0137   -6.6299 C   0  0  0  0  0  0  0  0  0  0  0  0
  -28.1229   -4.0962   -5.3185 C   0  0  0  0  0  0  0  0  0  0  0  0
  -28.0543   -5.3449   -4.7017 C   0  0  0  0  0  0  0  0  0  0  0  0
  -28.4884   -6.4908   -5.3811 C   0  0  0  0  0  0  0  0  0  0  0  0
  -27.7196   -3.0096   -4.5737 O   0  0  0  0  0  0  0  0  0  0  0  0
  -28.2682   -1.7730   -4.8474 C   0  0  0  0  0  0  0  0  0  0  0  0
  -29.6444   -1.5272   -4.9347 C   0  0  0  0  0  0  0  0  0  0  0  0
  -30.1113   -0.2801   -5.3443 C   0  0  0  0  0  0  0  0  0  0  0  0
  -29.2072    0.7550   -5.5735 C   0  0  0  0  0  0  0  0  0  0  0  0
  -27.8409    0.5419   -5.3878 C   0  0  0  0  0  0  0  0  0  0  0  0
  -27.3696   -0.7227   -5.0296 C   0  0  0  0  0  0  0  0  0  0  0  0
  -29.5206  -10.3258   -9.7673 C   0  0  0  0  0  0  0  0  0  0  0  0
  -28.6180  -11.4831   -9.3441 C   0  0  0  0  0  0  0  0  0  0  0  0
  -28.2495  -12.1756  -10.6559 C   0  0  0  0  0  0  0  0  0  0  0  0
  -28.6109  -11.2105  -11.7883 C   0  0  0  0  0  0  0  0  0  0  0  0
  -28.9802   -9.8876  -11.1258 C   0  0  0  0  0  0  0  0  0  0  0  0
  -27.4905   -8.2128   -8.6928 C   0  0  0  0  0  0  0  0  0  0  0  0
  -27.0481   -7.4665   -9.5477 O   0  0  0  0  0  0  0  0  0  0  0  0
  -26.6837   -9.0864   -8.0419 O   0  0  0  0  0  0  0  0  0  0  0  0
  -27.1408   -9.6296   -7.3849 H   0  0  0  0  0  0  0  0  0  0  0  0
  1  2  1  0  0  0
  1 11  1  0  0  0
  1 12  1  0  0  0
  2  3  1  0  0  0
  2  7  2  0  0  0
  3  4  2  0  0  0
  4  5  1  0  0  0
  5  6  2  0  0  0
  6  7  1  0  0  0
  6 10  1  0  0  0
  7  8  1  0  0  0
  8 13  1  0  0  0
  8  9  2  0  0  0
 13 14  1  0  0  0
 13 18  2  0  0  0
 14 15  2  0  0  0
 15 16  1  0  0  0
 16 19  1  0  0  0
 16 17  2  0  0  0
 19 20  1  0  0  0
 20 21  1  0  0  0
 20 25  2  0  0  0
 21 22  2  0  0  0
 22 23  1  0  0  0
 23 24  2  0  0  0
 24 25  1  0  0  0
 17 18  1  0  0  0
  9 31  1  0  0  0
  9 10  1  0  0  0
 31 32  2  0  0  0
 31 33  1  0  0  0
 33 34  1  0  0  0
 10 26  1  0  0  0
 26 27  1  0  0  0
 26 30  1  0  0  0
 27 28  1  0  0  0
 28 29  1  0  0  0
 29 30  1  0  0  0
M  END
> <minimizedAffinity>
-8.45868

$$$$
