CHEMBL4452275


 34 37  0  0  0  0  0  0  0  0999 V2000
  -30.4654   -6.0734   -5.6342 C   0  0  0  0  0  0  0  0  0  0  0  0
  -29.4321   -6.7802   -6.2530 C   0  0  0  0  0  0  0  0  0  0  0  0
  -29.6857   -7.9394   -6.9851 C   0  0  0  0  0  0  0  0  0  0  0  0
  -30.9891   -8.3964   -7.1117 C   0  0  0  0  0  0  0  0  0  0  0  0
  -32.0366   -7.7421   -6.4495 C   0  0  0  0  0  0  0  0  0  0  0  0
  -31.7704   -6.5776   -5.7154 C   0  0  0  0  0  0  0  0  0  0  0  0
  -30.0201   -3.4139   -6.7117 O   0  0  0  0  0  0  0  0  0  0  0  0
  -30.0310   -3.6254   -5.5017 C   0  0  0  0  0  0  0  0  0  0  0  0
  -29.7781   -2.6587   -4.5418 N   0  0  0  0  0  0  0  0  0  0  0  0
  -30.2853   -4.8707   -4.9345 N   0  0  0  0  0  0  0  0  0  0  0  0
  -29.6890   -2.9756   -3.5926 H   0  0  0  0  0  0  0  0  0  0  0  0
  -30.4558   -4.8759   -3.9445 H   0  0  0  0  0  0  0  0  0  0  0  0
  -29.4132   -1.3098   -4.7821 C   0  0  0  0  0  0  0  0  0  0  0  0
  -30.2832   -0.3340   -5.2680 C   0  0  0  0  0  0  0  0  0  0  0  0
  -29.8339    0.9569   -5.5249 C   0  0  0  0  0  0  0  0  0  0  0  0
  -28.5037    1.2917   -5.3181 C   0  0  0  0  0  0  0  0  0  0  0  0
  -27.6306    0.3339   -4.8090 C   0  0  0  0  0  0  0  0  0  0  0  0
  -28.0804   -0.9621   -4.5458 C   0  0  0  0  0  0  0  0  0  0  0  0
  -31.2379   -9.5971   -7.9416 C   0  0  0  0  0  0  0  0  0  0  0  0
  -32.2697   -9.6837   -8.5967 O   0  0  0  0  0  0  0  0  0  0  0  0
  -30.2076  -10.5188   -7.9038 N   0  0  0  0  0  0  0  0  0  0  0  0
  -29.4571  -10.3743   -7.2302 H   0  0  0  0  0  0  0  0  0  0  0  0
  -29.8797  -11.1102   -9.0849 N   0  0  0  0  0  0  0  0  0  0  0  0
  -28.6258  -11.0866   -9.4034 C   0  0  0  0  0  0  0  0  0  0  0  0
  -27.4026  -10.7069   -8.5612 C   0  0  0  0  0  0  0  0  0  0  0  0
  -27.3560  -10.6803   -7.3516 O   0  0  0  0  0  0  0  0  0  0  0  0
  -26.4586  -10.2998   -9.4790 N   0  0  0  0  0  0  0  0  0  0  0  0
  -27.0326  -10.2469  -10.7490 C   0  0  0  0  0  0  0  0  0  0  0  0
  -26.7237   -9.3689  -11.7667 C   0  0  0  0  0  0  0  0  0  0  0  0
  -27.6214   -9.2962  -12.8449 C   0  0  0  0  0  0  0  0  0  0  0  0
  -28.7322  -10.1617  -12.9408 C   0  0  0  0  0  0  0  0  0  0  0  0
  -29.0392  -11.0331  -11.9016 C   0  0  0  0  0  0  0  0  0  0  0  0
  -28.2122  -10.9856  -10.7980 C   0  0  0  0  0  0  0  0  0  0  0  0
  -25.5311   -9.9886   -9.2288 H   0  0  0  0  0  0  0  0  0  0  0  0
  7  8  2  0  0  0
  8  9  1  0  0  0
  8 10  1  0  0  0
  9 13  1  0  0  0
  9 11  1  0  0  0
 13 14  1  0  0  0
 13 18  2  0  0  0
 14 15  2  0  0  0
 15 16  1  0  0  0
 16 17  2  0  0  0
 17 18  1  0  0  0
 10  1  1  0  0  0
 10 12  1  0  0  0
  1  2  1  0  0  0
  1  6  2  0  0  0
  2  3  2  0  0  0
  3  4  1  0  0  0
  4 19  1  0  0  0
  4  5  2  0  0  0
 19 20  2  0  0  0
 19 21  1  0  0  0
 21 23  1  0  0  0
 21 22  1  0  0  0
 23 24  2  0  0  0
 24 25  1  0  0  0
 24 33  1  0  0  0
 25 26  2  0  0  0
 25 27  1  0  0  0
 27 28  1  0  0  0
 27 34  1  0  0  0
 28 29  1  0  0  0
 28 33  2  0  0  0
 29 30  2  0  0  0
 30 31  1  0  0  0
 31 32  2  0  0  0
 32 33  1  0  0  0
  5  6  1  0  0  0
M  END
> <minimizedAffinity>
-8.83179

$$$$
