CHEMBL219887


 33 36  0  0  0  0  0  0  0  0999 V2000
  -25.0842   -1.5960  -12.7112 C   0  0  0  0  0  0  0  0  0  0  0  0
  -23.8283   -1.7414  -12.1200 C   0  0  0  0  0  0  0  0  0  0  0  0
  -22.6896   -1.1644  -12.6850 C   0  0  0  0  0  0  0  0  0  0  0  0
  -22.7376   -0.4902  -13.9113 C   0  0  0  0  0  0  0  0  0  0  0  0
  -23.9698   -0.5323  -14.5880 C   0  0  0  0  0  0  0  0  0  0  0  0
  -25.1400   -1.0351  -13.9846 C   0  0  0  0  0  0  0  0  0  0  0  0
  -21.5388    0.2176  -14.4249 C   0  0  0  0  0  0  0  0  0  0  0  0
  -20.4124   -0.5097  -14.8904 C   0  0  0  0  0  0  0  0  0  0  0  0
  -19.2398    0.1053  -15.3308 C   0  0  0  0  0  0  0  0  0  0  0  0
  -19.1258    1.4959  -15.3821 C   0  0  0  0  0  0  0  0  0  0  0  0
  -17.8602    2.1467  -15.8564 C   0  0  0  0  0  0  0  0  0  0  0  0
  -20.2501    2.2162  -14.9456 C   0  0  0  0  0  0  0  0  0  0  0  0
  -20.4676    3.5687  -14.9141 N   0  0  0  0  0  0  0  0  0  0  0  0
  -21.6117    3.9366  -14.3354 N   0  0  0  0  0  0  0  0  0  0  0  0
  -22.1798    2.7812  -14.0047 C   0  0  0  0  0  0  0  0  0  0  0  0
  -23.3334    2.7648  -13.3177 N   0  0  0  0  0  0  0  0  0  0  0  0
  -21.4192    1.6403  -14.4327 C   0  0  0  0  0  0  0  0  0  0  0  0
  -19.8548    4.2947  -15.2643 H   0  0  0  0  0  0  0  0  0  0  0  0
  -23.6410    3.6631  -12.9630 H   0  0  0  0  0  0  0  0  0  0  0  0
  -23.4888    2.0092  -12.6577 H   0  0  0  0  0  0  0  0  0  0  0  0
  -27.5980   -2.4153  -10.1877 N   0  0  0  0  0  0  0  0  0  0  0  0
  -26.4498   -1.8070  -10.6811 C   0  0  0  0  0  0  0  0  0  0  0  0
  -25.6631   -1.1844   -9.9830 O   0  0  0  0  0  0  0  0  0  0  0  0
  -26.2794   -1.9872  -12.0456 N   0  0  0  0  0  0  0  0  0  0  0  0
  -28.2514   -2.8083  -10.8458 H   0  0  0  0  0  0  0  0  0  0  0  0
  -27.1085   -2.0772  -12.6100 H   0  0  0  0  0  0  0  0  0  0  0  0
  -27.8525   -0.2128   -5.7391 C   0  0  0  0  0  0  0  0  0  0  0  0
  -28.0758   -1.4142   -6.6147 C   0  0  0  0  0  0  0  0  0  0  0  0
  -28.6065   -2.5812   -6.0668 C   0  0  0  0  0  0  0  0  0  0  0  0
  -28.8194   -3.6936   -6.8650 C   0  0  0  0  0  0  0  0  0  0  0  0
  -28.4954   -3.6413   -8.2260 C   0  0  0  0  0  0  0  0  0  0  0  0
  -27.9516   -2.4906   -8.8097 C   0  0  0  0  0  0  0  0  0  0  0  0
  -27.7507   -1.3697   -7.9873 C   0  0  0  0  0  0  0  0  0  0  0  0
 27 28  1  0  0  0
 28 29  1  0  0  0
 28 33  2  0  0  0
 29 30  2  0  0  0
 30 31  1  0  0  0
 31 32  2  0  0  0
 32 21  1  0  0  0
 32 33  1  0  0  0
 21 22  1  0  0  0
 21 25  1  0  0  0
 22 23  2  0  0  0
 22 24  1  0  0  0
 24  1  1  0  0  0
 24 26  1  0  0  0
  1  2  1  0  0  0
  1  6  2  0  0  0
  2  3  2  0  0  0
  3  4  1  0  0  0
  4  7  1  0  0  0
  4  5  2  0  0  0
  7  8  1  0  0  0
  7 17  2  0  0  0
  8  9  2  0  0  0
  9 10  1  0  0  0
 10 11  1  0  0  0
 10 12  2  0  0  0
 12 13  1  0  0  0
 12 17  1  0  0  0
 13 14  1  0  0  0
 13 18  1  0  0  0
 14 15  2  0  0  0
 15 16  1  0  0  0
 15 17  1  0  0  0
 16 19  1  0  0  0
 16 20  1  0  0  0
  5  6  1  0  0  0
M  END
> <minimizedAffinity>
-10.97149

$$$$
