CHEMBL4085974


 28 31  0  0  0  0  0  0  0  0999 V2000
  -18.2654    2.3148  -15.1871 C   0  0  0  0  0  0  0  0  0  0  0  0
  -19.0066    3.2662  -14.4903 C   0  0  0  0  0  0  0  0  0  0  0  0
  -20.3384    3.0501  -14.1404 C   0  0  0  0  0  0  0  0  0  0  0  0
  -20.9556    1.8222  -14.3665 C   0  0  0  0  0  0  0  0  0  0  0  0
  -20.2025    0.8141  -14.9700 C   0  0  0  0  0  0  0  0  0  0  0  0
  -18.8796    1.0653  -15.3900 C   0  0  0  0  0  0  0  0  0  0  0  0
  -16.2066    0.2181  -13.1329 C   0  0  0  0  0  0  0  0  0  0  0  0
  -15.3776    0.9853  -14.1023 C   0  0  0  0  0  0  0  0  0  0  0  0
  -14.0528    0.7586  -14.0756 N   0  0  0  0  0  0  0  0  0  0  0  0
  -13.5666    1.5866  -15.0083 N   0  0  0  0  0  0  0  0  0  0  0  0
  -14.5126    2.3276  -15.6417 C   0  0  0  0  0  0  0  0  0  0  0  0
  -14.2545    3.2258  -16.6092 N   0  0  0  0  0  0  0  0  0  0  0  0
  -15.3644    3.8184  -17.0835 C   0  0  0  0  0  0  0  0  0  0  0  0
  -16.6563    3.5626  -16.6514 C   0  0  0  0  0  0  0  0  0  0  0  0
  -16.8952    2.6176  -15.6315 C   0  0  0  0  0  0  0  0  0  0  0  0
  -15.7421    1.9650  -15.0971 C   0  0  0  0  0  0  0  0  0  0  0  0
  -12.5696    1.6097  -15.1761 H   0  0  0  0  0  0  0  0  0  0  0  0
  -22.2998    1.5643  -14.0061 N   0  0  0  0  0  0  0  0  0  0  0  0
  -22.8231    0.3166  -13.7181 C   0  0  0  0  0  0  0  0  0  0  0  0
  -22.2266   -0.7475  -13.7681 O   0  0  0  0  0  0  0  0  0  0  0  0
  -24.1353    0.3802  -13.3022 N   0  0  0  0  0  0  0  0  0  0  0  0
  -22.8990    2.3581  -13.8377 H   0  0  0  0  0  0  0  0  0  0  0  0
  -24.7103    1.0412  -13.8081 H   0  0  0  0  0  0  0  0  0  0  0  0
  -24.7700   -0.8656  -12.8954 C   0  0  0  0  0  0  0  0  0  0  0  0
  -25.8375   -1.3389  -13.8735 C   0  0  0  0  0  0  0  0  0  0  0  0
  -26.7809   -2.2162  -13.0513 C   0  0  0  0  0  0  0  0  0  0  0  0
  -26.4961   -1.9137  -11.5837 C   0  0  0  0  0  0  0  0  0  0  0  0
  -25.5491   -0.7267  -11.5843 C   0  0  0  0  0  0  0  0  0  0  0  0
  7  8  1  0  0  0
  8  9  2  0  0  0
  8 16  1  0  0  0
  9 10  1  0  0  0
 10 11  1  0  0  0
 10 17  1  0  0  0
 11 12  1  0  0  0
 11 16  2  0  0  0
 12 13  2  0  0  0
 13 14  1  0  0  0
 14 15  2  0  0  0
 15  1  1  0  0  0
 15 16  1  0  0  0
  1  2  1  0  0  0
  1  6  2  0  0  0
  2  3  2  0  0  0
  3  4  1  0  0  0
  4 18  1  0  0  0
  4  5  2  0  0  0
 18 19  1  0  0  0
 18 22  1  0  0  0
 19 20  2  0  0  0
 19 21  1  0  0  0
 21 24  1  0  0  0
 21 23  1  0  0  0
 24 25  1  0  0  0
 24 28  1  0  0  0
 25 26  1  0  0  0
 26 27  1  0  0  0
 27 28  1  0  0  0
  5  6  1  0  0  0
M  END
> <minimizedAffinity>
-9.31088

$$$$
