CHEMBL404495


 39 43  0  0  0  0  0  0  0  0999 V2000
  -28.7039   -6.8096   -5.7091 C   0  0  0  0  0  0  0  0  0  0  0  0
  -29.3399   -5.6257   -5.3584 C   0  0  0  0  0  0  0  0  0  0  0  0
  -29.3974   -4.5028   -6.2482 C   0  0  0  0  0  0  0  0  0  0  0  0
  -29.0681   -4.6330   -7.5998 C   0  0  0  0  0  0  0  0  0  0  0  0
  -28.7854   -5.9586   -8.0017 C   0  0  0  0  0  0  0  0  0  0  0  0
  -28.6203   -7.0267   -7.0899 C   0  0  0  0  0  0  0  0  0  0  0  0
  -28.2912   -8.2140   -7.6371 F   0  0  0  0  0  0  0  0  0  0  0  0
  -29.1173   -3.5224   -8.5612 N   0  0  0  0  0  0  0  0  0  0  0  0
  -29.9838   -3.3057   -9.0777 H   0  0  0  0  0  0  0  0  0  0  0  0
  -28.0511   -2.5785   -8.7228 C   0  0  0  0  0  0  0  0  0  0  0  0
  -27.5840   -1.3495   -7.6496 S   0  0  0  0  0  0  0  0  0  0  0  0
  -27.2778   -2.7195   -9.9050 N   0  0  0  0  0  0  0  0  0  0  0  0
  -27.3457   -1.9048  -11.0076 C   0  0  0  0  0  0  0  0  0  0  0  0
  -27.9041   -0.8097  -10.9189 O   0  0  0  0  0  0  0  0  0  0  0  0
  -26.6588   -3.5252   -9.9155 H   0  0  0  0  0  0  0  0  0  0  0  0
  -26.6573   -2.2324  -12.3125 C   0  0  0  0  0  0  0  0  0  0  0  0
  -25.3074   -1.5953  -12.5116 C   0  0  0  0  0  0  0  0  0  0  0  0
  -24.9448   -1.0467  -13.7461 C   0  0  0  0  0  0  0  0  0  0  0  0
  -23.6759   -0.4892  -13.9326 C   0  0  0  0  0  0  0  0  0  0  0  0
  -22.7106   -0.5977  -12.9353 C   0  0  0  0  0  0  0  0  0  0  0  0
  -23.0466   -1.1955  -11.7281 C   0  0  0  0  0  0  0  0  0  0  0  0
  -24.3658   -1.5742  -11.4785 C   0  0  0  0  0  0  0  0  0  0  0  0
  -27.7980   -7.5022   -4.9134 O   0  0  0  0  0  0  0  0  0  0  0  0
  -24.6299  -10.6396   -3.6304 C   0  0  0  0  0  0  0  0  0  0  0  0
  -25.7539  -11.4132   -3.4528 C   0  0  0  0  0  0  0  0  0  0  0  0
  -26.8735  -10.6123   -3.5826 C   0  0  0  0  0  0  0  0  0  0  0  0
  -27.9359  -11.1963   -4.1156 N   0  0  0  0  0  0  0  0  0  0  0  0
  -29.1089  -10.8890   -3.6733 C   0  0  0  0  0  0  0  0  0  0  0  0
  -29.1095   -9.5363   -3.8593 C   0  0  0  0  0  0  0  0  0  0  0  0
  -27.9191   -8.6567   -4.1556 C   0  0  0  0  0  0  0  0  0  0  0  0
  -26.7025   -9.2610   -3.7824 C   0  0  0  0  0  0  0  0  0  0  0  0
  -25.0107   -8.9694   -3.8358 S   0  0  0  0  0  0  0  0  0  0  0  0
  -22.5377  -11.3032   -4.7834 N   0  0  0  0  0  0  0  0  0  0  0  0
  -21.4637  -12.0648   -4.4078 C   0  0  0  0  0  0  0  0  0  0  0  0
  -21.6709  -12.3947   -3.0941 C   0  0  0  0  0  0  0  0  0  0  0  0
  -22.8502  -11.8856   -2.6606 N   0  0  0  0  0  0  0  0  0  0  0  0
  -23.3479  -11.2335   -3.6920 C   0  0  0  0  0  0  0  0  0  0  0  0
  -22.4200  -11.6093   -7.2115 C   0  0  0  0  0  0  0  0  0  0  0  0
  -22.7658  -10.6806   -6.0766 C   0  0  0  0  0  0  0  0  0  0  0  0
 38 39  1  0  0  0
 39 33  1  0  0  0
 33 34  1  0  0  0
 33 37  1  0  0  0
 34 35  2  0  0  0
 35 36  1  0  0  0
 36 37  2  0  0  0
 37 24  1  0  0  0
 24 25  2  0  0  0
 24 32  1  0  0  0
 25 26  1  0  0  0
 26 27  1  0  0  0
 26 31  2  0  0  0
 27 28  2  0  0  0
 28 29  1  0  0  0
 29 30  2  0  0  0
 30 23  1  0  0  0
 30 31  1  0  0  0
 23  1  1  0  0  0
  1  2  1  0  0  0
  1  6  2  0  0  0
  2  3  2  0  0  0
  3  4  1  0  0  0
  4  8  1  0  0  0
  4  5  2  0  0  0
  8 10  1  0  0  0
  8  9  1  0  0  0
 10 11  2  0  0  0
 10 12  1  0  0  0
 12 13  1  0  0  0
 12 15  1  0  0  0
 13 14  2  0  0  0
 13 16  1  0  0  0
 16 17  1  0  0  0
 17 18  1  0  0  0
 17 22  2  0  0  0
 18 19  2  0  0  0
 19 20  1  0  0  0
 20 21  2  0  0  0
 21 22  1  0  0  0
  5  6  1  0  0  0
  6  7  1  0  0  0
 31 32  1  0  0  0
M  END
> <minimizedAffinity>
-9.48788

$$$$
