CHEMBL1794061


 21 23  0  0  0  0  0  0  0  0999 V2000
  -27.3266   -2.0674   -9.4898 C   0  0  0  0  0  0  0  0  0  0  0  0
  -28.2261   -1.6715  -10.4134 N   0  0  0  0  0  0  0  0  0  0  0  0
  -27.4660   -1.1909  -11.4191 C   0  0  0  0  0  0  0  0  0  0  0  0
  -26.1353   -1.3439  -11.0717 C   0  0  0  0  0  0  0  0  0  0  0  0
  -26.0934   -1.8868   -9.8860 O   0  0  0  0  0  0  0  0  0  0  0  0
  -24.9220   -0.9760  -11.8273 C   0  0  0  0  0  0  0  0  0  0  0  0
  -24.5699    0.3656  -12.0503 C   0  0  0  0  0  0  0  0  0  0  0  0
  -23.4075    0.6778  -12.7635 C   0  0  0  0  0  0  0  0  0  0  0  0
  -22.5923   -0.3426  -13.2622 C   0  0  0  0  0  0  0  0  0  0  0  0
  -22.9360   -1.6783  -13.0474 C   0  0  0  0  0  0  0  0  0  0  0  0
  -24.0943   -1.9949  -12.3325 C   0  0  0  0  0  0  0  0  0  0  0  0
  -27.6857   -2.5846   -8.2159 N   0  0  0  0  0  0  0  0  0  0  0  0
  -27.7741   -3.6088   -8.1313 H   0  0  0  0  0  0  0  0  0  0  0  0
  -29.0972   -1.6345   -4.8848 C   0  0  0  0  0  0  0  0  0  0  0  0
  -28.9077   -0.2492   -4.8758 C   0  0  0  0  0  0  0  0  0  0  0  0
  -28.2958    0.3747   -5.9557 C   0  0  0  0  0  0  0  0  0  0  0  0
  -27.8710   -0.3735   -7.0525 C   0  0  0  0  0  0  0  0  0  0  0  0
  -28.0520   -1.7780   -7.0871 C   0  0  0  0  0  0  0  0  0  0  0  0
  -28.6724   -2.3944   -5.9848 C   0  0  0  0  0  0  0  0  0  0  0  0
  -30.2579   -2.7844   -2.8741 N   0  0  0  0  0  0  0  0  0  0  0  0
  -29.7416   -2.2723   -3.7693 C   0  0  0  0  0  0  0  0  0  0  0  0
 20 21  3  0  0  0
 21 14  1  0  0  0
 14 15  1  0  0  0
 14 19  2  0  0  0
 15 16  2  0  0  0
 16 17  1  0  0  0
 17 18  2  0  0  0
 18 12  1  0  0  0
 18 19  1  0  0  0
 12  1  1  0  0  0
 12 13  1  0  0  0
  1  2  2  0  0  0
  1  5  1  0  0  0
  2  3  1  0  0  0
  3  4  2  0  0  0
  4  6  1  0  0  0
  4  5  1  0  0  0
  6  7  1  0  0  0
  6 11  2  0  0  0
  7  8  2  0  0  0
  8  9  1  0  0  0
  9 10  2  0  0  0
 10 11  1  0  0  0
M  END
> <minimizedAffinity>
-8.52374

$$$$
