CHEMBL3933130


 34 37  0  0  0  0  0  0  0  0999 V2000
  -28.4761  -10.2815   -4.5011 C   0  0  0  0  0  0  0  0  0  0  0  0
  -28.9456   -9.3356   -5.4182 C   0  0  0  0  0  0  0  0  0  0  0  0
  -28.3709   -9.1974   -6.7064 C   0  0  0  0  0  0  0  0  0  0  0  0
  -28.7907   -8.2830   -7.6832 C   0  0  0  0  0  0  0  0  0  0  0  0
  -28.2528   -8.2429   -8.9220 N   0  0  0  0  0  0  0  0  0  0  0  0
  -27.2633   -9.1073   -9.1602 C   0  0  0  0  0  0  0  0  0  0  0  0
  -26.7788  -10.0089   -8.3052 N   0  0  0  0  0  0  0  0  0  0  0  0
  -27.3425  -10.0484   -7.0951 C   0  0  0  0  0  0  0  0  0  0  0  0
  -26.8696  -10.9666   -6.1779 C   0  0  0  0  0  0  0  0  0  0  0  0
  -27.3624  -11.0622   -4.8633 C   0  0  0  0  0  0  0  0  0  0  0  0
  -29.9411  -11.6093   -3.1267 C   0  0  0  0  0  0  0  0  0  0  0  0
  -29.0575  -10.4941   -3.2752 O   0  0  0  0  0  0  0  0  0  0  0  0
  -29.8081   -7.3652   -7.3584 N   0  0  0  0  0  0  0  0  0  0  0  0
  -30.6807   -7.8187   -7.1207 H   0  0  0  0  0  0  0  0  0  0  0  0
  -29.6726   -6.0574   -6.8495 C   0  0  0  0  0  0  0  0  0  0  0  0
  -29.0431   -5.0443   -7.5774 C   0  0  0  0  0  0  0  0  0  0  0  0
  -29.0906   -3.7174   -7.1456 C   0  0  0  0  0  0  0  0  0  0  0  0
  -29.7697   -3.3937   -5.9682 C   0  0  0  0  0  0  0  0  0  0  0  0
  -29.8736   -1.7157   -5.5520 Cl  0  0  0  0  0  0  0  0  0  0  0  0
  -30.3607   -4.3944   -5.1971 C   0  0  0  0  0  0  0  0  0  0  0  0
  -31.1724   -4.0544   -3.7094 Cl  0  0  0  0  0  0  0  0  0  0  0  0
  -30.3138   -5.7160   -5.6514 C   0  0  0  0  0  0  0  0  0  0  0  0
  -30.9190   -6.6944   -4.9444 F   0  0  0  0  0  0  0  0  0  0  0  0
  -26.7608  -11.8856   -3.9187 O   0  0  0  0  0  0  0  0  0  0  0  0
  -25.3336  -12.0315   -4.1135 C   0  0  0  0  0  0  0  0  0  0  0  0
  -24.5183  -10.7836   -3.7222 C   0  0  0  0  0  0  0  0  0  0  0  0
  -23.4625  -10.4833   -4.8239 C   0  0  0  0  0  0  0  0  0  0  0  0
  -22.4051  -11.5131   -4.8397 N   0  0  0  0  0  0  0  0  0  0  0  0
  -21.4296  -11.2557   -5.9018 C   0  0  0  0  0  0  0  0  0  0  0  0
  -21.7109  -11.5419   -3.5279 C   0  0  0  0  0  0  0  0  0  0  0  0
  -22.6702  -11.6378   -2.3328 C   0  0  0  0  0  0  0  0  0  0  0  0
  -22.3506  -12.1764   -1.2749 O   0  0  0  0  0  0  0  0  0  0  0  0
  -23.8712  -10.9742   -2.4294 N   0  0  0  0  0  0  0  0  0  0  0  0
  -24.4699  -11.1049   -1.6228 H   0  0  0  0  0  0  0  0  0  0  0  0
 11 12  1  0  0  0
 12  1  1  0  0  0
  1  2  1  0  0  0
  1 10  2  0  0  0
  2  3  2  0  0  0
  3  4  1  0  0  0
  3  8  1  0  0  0
  4 13  1  0  0  0
  4  5  2  0  0  0
 13 15  1  0  0  0
 13 14  1  0  0  0
 15 16  1  0  0  0
 15 22  2  0  0  0
 16 17  2  0  0  0
 17 18  1  0  0  0
 18 19  1  0  0  0
 18 20  2  0  0  0
 20 21  1  0  0  0
 20 22  1  0  0  0
 22 23  1  0  0  0
  5  6  1  0  0  0
  6  7  2  0  0  0
  7  8  1  0  0  0
  8  9  2  0  0  0
  9 10  1  0  0  0
 10 24  1  0  0  0
 24 25  1  0  0  0
 25 26  1  0  0  0
 26 27  1  0  0  0
 26 33  1  0  0  0
 27 28  1  0  0  0
 28 29  1  0  0  0
 28 30  1  0  0  0
 30 31  1  0  0  0
 31 32  2  0  0  0
 31 33  1  0  0  0
 33 34  1  0  0  0
M  END
> <minimizedAffinity>
-8.12337

$$$$
