CHEMBL395665


 48 53  0  0  0  0  0  0  0  0999 V2000
  -23.0626   -0.1148  -13.1922 C   0  0  0  0  0  0  0  0  0  0  0  0
  -22.8278   -0.1870  -11.8322 C   0  0  0  0  0  0  0  0  0  0  0  0
  -24.0817   -0.9154  -10.9697 S   0  0  0  0  0  0  0  0  0  0  0  0
  -25.0215   -1.1735  -12.3954 C   0  0  0  0  0  0  0  0  0  0  0  0
  -26.2834   -1.8004  -12.4736 C   0  0  0  0  0  0  0  0  0  0  0  0
  -26.8265   -1.8892  -13.7426 C   0  0  0  0  0  0  0  0  0  0  0  0
  -26.2475   -1.4260  -14.8594 N   0  0  0  0  0  0  0  0  0  0  0  0
  -25.0390   -0.8361  -14.7932 C   0  0  0  0  0  0  0  0  0  0  0  0
  -24.5581   -0.4472  -16.0292 N   0  0  0  0  0  0  0  0  0  0  0  0
  -24.3718   -0.6767  -13.5484 C   0  0  0  0  0  0  0  0  0  0  0  0
  -25.1392   -0.8328  -16.7679 H   0  0  0  0  0  0  0  0  0  0  0  0
  -23.5628   -0.6074  -16.1626 H   0  0  0  0  0  0  0  0  0  0  0  0
  -20.4885    2.1919  -14.7082 C   0  0  0  0  0  0  0  0  0  0  0  0
  -21.5866    1.6980  -13.9942 C   0  0  0  0  0  0  0  0  0  0  0  0
  -21.9852    0.3598  -14.0719 C   0  0  0  0  0  0  0  0  0  0  0  0
  -21.2935   -0.4639  -14.9510 C   0  0  0  0  0  0  0  0  0  0  0  0
  -20.0921   -0.0301  -15.5234 C   0  0  0  0  0  0  0  0  0  0  0  0
  -19.6304    1.2770  -15.3336 C   0  0  0  0  0  0  0  0  0  0  0  0
  -18.3292    1.6705  -15.7427 N   0  0  0  0  0  0  0  0  0  0  0  0
  -17.1323    1.1740  -15.2157 C   0  0  0  0  0  0  0  0  0  0  0  0
  -17.0671    0.4225  -14.2458 O   0  0  0  0  0  0  0  0  0  0  0  0
  -18.2848    2.4866  -16.3379 H   0  0  0  0  0  0  0  0  0  0  0  0
  -15.9223    1.5226  -15.9733 C   0  0  0  0  0  0  0  0  0  0  0  0
  -15.0267    0.6290  -16.5527 C   0  0  0  0  0  0  0  0  0  0  0  0
  -13.9740    0.6517  -15.5635 C   0  0  0  0  0  0  0  0  0  0  0  0
  -13.0779   -0.3026  -15.0810 C   0  0  0  0  0  0  0  0  0  0  0  0
  -12.3732    0.0003  -13.9135 C   0  0  0  0  0  0  0  0  0  0  0  0
  -12.4581    1.2631  -13.3105 C   0  0  0  0  0  0  0  0  0  0  0  0
  -13.2431    2.2746  -13.8511 C   0  0  0  0  0  0  0  0  0  0  0  0
  -14.0413    1.9079  -14.9360 C   0  0  0  0  0  0  0  0  0  0  0  0
  -15.0506    2.5349  -15.6056 N   0  0  0  0  0  0  0  0  0  0  0  0
  -15.1452    3.9603  -15.8537 C   0  0  0  0  0  0  0  0  0  0  0  0
  -19.1245    3.9092  -13.8622 C   0  0  0  0  0  0  0  0  0  0  0  0
  -20.2102    3.5383  -14.7358 O   0  0  0  0  0  0  0  0  0  0  0  0
  -26.9103   -2.3797  -11.2815 C   0  0  0  0  0  0  0  0  0  0  0  0
  -27.4983   -1.6459  -10.3313 C   0  0  0  0  0  0  0  0  0  0  0  0
  -28.1276   -2.2358   -9.1161 C   0  0  0  0  0  0  0  0  0  0  0  0
  -27.4712   -1.7151   -7.9194 N   0  0  0  0  0  0  0  0  0  0  0  0
  -27.2647   -0.7220   -8.0742 H   0  0  0  0  0  0  0  0  0  0  0  0
  -28.3133   -1.8428   -6.7241 C   0  0  0  0  0  0  0  0  0  0  0  0
  -28.9963   -3.2193   -6.6453 C   0  0  0  0  0  0  0  0  0  0  0  0
  -29.8098   -3.3706   -5.3646 C   0  0  0  0  0  0  0  0  0  0  0  0
  -28.9377   -3.1471   -4.1295 C   0  0  0  0  0  0  0  0  0  0  0  0
  -29.7641   -3.2646   -2.9319 N   0  0  0  0  0  0  0  0  0  0  0  0
  -28.2492   -1.7797   -4.1855 C   0  0  0  0  0  0  0  0  0  0  0  0
  -27.4447   -1.6096   -5.4765 C   0  0  0  0  0  0  0  0  0  0  0  0
  -30.4748   -2.5344   -2.9229 H   0  0  0  0  0  0  0  0  0  0  0  0
  -29.1875   -3.1034   -2.1037 H   0  0  0  0  0  0  0  0  0  0  0  0
 33 34  1  0  0  0
 34 13  1  0  0  0
 13 14  1  0  0  0
 13 18  2  0  0  0
 14 15  2  0  0  0
 15  1  1  0  0  0
 15 16  1  0  0  0
  1  2  2  0  0  0
  1 10  1  0  0  0
  2  3  1  0  0  0
  3  4  1  0  0  0
  4  5  1  0  0  0
  4 10  2  0  0  0
  5 35  1  0  0  0
  5  6  2  0  0  0
 35 36  2  0  0  0
 36 37  1  0  0  0
 37 38  1  0  0  0
 38 40  1  0  0  0
 38 39  1  0  0  0
 40 41  1  0  0  0
 40 46  1  0  0  0
 41 42  1  0  0  0
 42 43  1  0  0  0
 43 45  1  0  0  0
 43 44  1  0  0  0
 44 47  1  0  0  0
 44 48  1  0  0  0
 45 46  1  0  0  0
  6  7  1  0  0  0
  7  8  2  0  0  0
  8  9  1  0  0  0
  8 10  1  0  0  0
  9 11  1  0  0  0
  9 12  1  0  0  0
 16 17  2  0  0  0
 17 18  1  0  0  0
 18 19  1  0  0  0
 19 20  1  0  0  0
 19 22  1  0  0  0
 20 21  2  0  0  0
 20 23  1  0  0  0
 23 24  2  0  0  0
 23 31  1  0  0  0
 24 25  1  0  0  0
 25 26  1  0  0  0
 25 30  2  0  0  0
 26 27  2  0  0  0
 27 28  1  0  0  0
 28 29  2  0  0  0
 29 30  1  0  0  0
 30 31  1  0  0  0
 31 32  1  0  0  0
M  END
> <minimizedAffinity>
-8.88879

$$$$
