CHEMBL1241390


 21 23  0  0  0  0  0  0  0  0999 V2000
  -29.0198   -0.8912   -6.0670 N   0  0  0  0  0  0  0  0  0  0  0  0
  -29.5907   -1.7266   -5.1734 N   0  0  0  0  0  0  0  0  0  0  0  0
  -29.3699   -2.9596   -5.6718 C   0  0  0  0  0  0  0  0  0  0  0  0
  -28.7059   -2.8906   -6.9418 C   0  0  0  0  0  0  0  0  0  0  0  0
  -28.2438   -3.7485   -7.9512 C   0  0  0  0  0  0  0  0  0  0  0  0
  -28.3879   -5.1285   -7.9706 N   0  0  0  0  0  0  0  0  0  0  0  0
  -27.6081   -3.2179   -9.0176 N   0  0  0  0  0  0  0  0  0  0  0  0
  -27.4594   -1.8831   -9.0810 C   0  0  0  0  0  0  0  0  0  0  0  0
  -27.8715   -0.9663   -8.1991 N   0  0  0  0  0  0  0  0  0  0  0  0
  -28.4905   -1.5374   -7.1495 C   0  0  0  0  0  0  0  0  0  0  0  0
  -29.2712   -5.4603   -7.6039 H   0  0  0  0  0  0  0  0  0  0  0  0
  -28.1500   -5.4822   -8.8918 H   0  0  0  0  0  0  0  0  0  0  0  0
  -29.7983   -4.1298   -4.9085 C   0  0  0  0  0  0  0  0  0  0  0  0
  -31.1396   -4.3750   -4.6008 C   0  0  0  0  0  0  0  0  0  0  0  0
  -31.4954   -5.4953   -3.8499 C   0  0  0  0  0  0  0  0  0  0  0  0
  -30.4945   -6.3680   -3.4573 C   0  0  0  0  0  0  0  0  0  0  0  0
  -29.1924   -6.1919   -3.7579 N   0  0  0  0  0  0  0  0  0  0  0  0
  -28.8770   -5.0855   -4.4822 C   0  0  0  0  0  0  0  0  0  0  0  0
  -30.3451    1.1576   -5.6377 C   0  0  0  0  0  0  0  0  0  0  0  0
  -28.9550    0.5424   -5.8026 C   0  0  0  0  0  0  0  0  0  0  0  0
  -28.0656    0.8389   -4.5961 C   0  0  0  0  0  0  0  0  0  0  0  0
 19 20  1  0  0  0
 20 21  1  0  0  0
 20  1  1  0  0  0
  1  2  1  0  0  0
  1 10  1  0  0  0
  2  3  2  0  0  0
  3 13  1  0  0  0
  3  4  1  0  0  0
 13 14  1  0  0  0
 13 18  2  0  0  0
 14 15  2  0  0  0
 15 16  1  0  0  0
 16 17  2  0  0  0
 17 18  1  0  0  0
  4  5  1  0  0  0
  4 10  2  0  0  0
  5  6  1  0  0  0
  5  7  2  0  0  0
  6 11  1  0  0  0
  6 12  1  0  0  0
  7  8  1  0  0  0
  8  9  2  0  0  0
  9 10  1  0  0  0
M  END
> <minimizedAffinity>
-7.39460

$$$$
