CHEMBL2032032


 45 50  0  0  0  0  0  0  0  0999 V2000
  -25.8145   -1.8704   -9.9292 N   0  0  0  0  0  0  0  0  0  0  0  0
  -27.1850   -1.8842   -9.7073 C   0  0  0  0  0  0  0  0  0  0  0  0
  -27.9892   -1.3031  -10.4360 O   0  0  0  0  0  0  0  0  0  0  0  0
  -25.2135   -2.2437   -9.1965 H   0  0  0  0  0  0  0  0  0  0  0  0
  -23.7898   -0.2623  -13.3620 C   0  0  0  0  0  0  0  0  0  0  0  0
  -23.7756    0.4289  -12.1574 C   0  0  0  0  0  0  0  0  0  0  0  0
  -24.4314   -0.0983  -11.0312 C   0  0  0  0  0  0  0  0  0  0  0  0
  -25.1821   -1.2862  -11.0805 C   0  0  0  0  0  0  0  0  0  0  0  0
  -25.3018   -1.9022  -12.3311 C   0  0  0  0  0  0  0  0  0  0  0  0
  -24.6037   -1.3978  -13.4477 C   0  0  0  0  0  0  0  0  0  0  0  0
  -24.7031   -2.0555  -14.6138 F   0  0  0  0  0  0  0  0  0  0  0  0
  -23.0384    0.0731  -14.4721 O   0  0  0  0  0  0  0  0  0  0  0  0
  -18.0366    1.2441  -15.2339 C   0  0  0  0  0  0  0  0  0  0  0  0
  -18.7401    0.0711  -15.4540 C   0  0  0  0  0  0  0  0  0  0  0  0
  -20.1220    0.0562  -15.2948 C   0  0  0  0  0  0  0  0  0  0  0  0
  -20.8254    1.1824  -14.8226 C   0  0  0  0  0  0  0  0  0  0  0  0
  -22.1976    1.1791  -14.4572 C   0  0  0  0  0  0  0  0  0  0  0  0
  -22.8164    2.3764  -14.1028 C   0  0  0  0  0  0  0  0  0  0  0  0
  -22.0389    3.5179  -14.0475 C   0  0  0  0  0  0  0  0  0  0  0  0
  -20.7120    3.5385  -14.2938 N   0  0  0  0  0  0  0  0  0  0  0  0
  -20.1092    2.3896  -14.6612 C   0  0  0  0  0  0  0  0  0  0  0  0
  -18.7373    2.3975  -14.8740 C   0  0  0  0  0  0  0  0  0  0  0  0
  -16.2172    2.6244  -15.8683 C   0  0  0  0  0  0  0  0  0  0  0  0
  -16.6796    1.3819  -15.3448 O   0  0  0  0  0  0  0  0  0  0  0  0
  -27.7190   -2.6225   -8.5308 C   0  0  0  0  0  0  0  0  0  0  0  0
  -28.1647   -2.0609   -7.3822 C   0  0  0  0  0  0  0  0  0  0  0  0
  -28.1983   -0.6024   -7.0314 C   0  0  0  0  0  0  0  0  0  0  0  0
  -28.6380   -3.0065   -6.4641 N   0  0  0  0  0  0  0  0  0  0  0  0
  -28.3039   -4.2709   -6.9819 N   0  0  0  0  0  0  0  0  0  0  0  0
  -27.8469   -4.0897   -8.3104 C   0  0  0  0  0  0  0  0  0  0  0  0
  -27.6244   -4.9201   -9.1802 O   0  0  0  0  0  0  0  0  0  0  0  0
  -28.8821   -5.4690   -6.5092 C   0  0  0  0  0  0  0  0  0  0  0  0
  -29.9936   -5.9910   -7.1824 C   0  0  0  0  0  0  0  0  0  0  0  0
  -30.5318   -7.2278   -6.8132 C   0  0  0  0  0  0  0  0  0  0  0  0
  -29.9895   -7.9333   -5.7413 C   0  0  0  0  0  0  0  0  0  0  0  0
  -28.9003   -7.4102   -5.0467 C   0  0  0  0  0  0  0  0  0  0  0  0
  -28.3407   -6.1901   -5.4379 C   0  0  0  0  0  0  0  0  0  0  0  0
  -28.8251   -2.7750   -5.0158 C   0  0  0  0  0  0  0  0  0  0  0  0
  -30.2700   -2.7140   -4.5018 C   0  0  0  0  0  0  0  0  0  0  0  0
  -30.3052   -2.7867   -2.9763 C   0  0  0  0  0  0  0  0  0  0  0  0
  -30.9669   -4.0148   -2.7168 N   0  0  0  0  0  0  0  0  0  0  0  0
  -31.4252   -4.5893   -3.8625 C   0  0  0  0  0  0  0  0  0  0  0  0
  -32.0891   -5.6085   -3.9139 O   0  0  0  0  0  0  0  0  0  0  0  0
  -31.0335   -3.8556   -4.9411 O   0  0  0  0  0  0  0  0  0  0  0  0
  -31.2210   -4.3982   -1.8148 H   0  0  0  0  0  0  0  0  0  0  0  0
 23 24  1  0  0  0
 24 13  1  0  0  0
 13 14  1  0  0  0
 13 22  2  0  0  0
 14 15  2  0  0  0
 15 16  1  0  0  0
 16 17  1  0  0  0
 16 21  2  0  0  0
 17 12  1  0  0  0
 17 18  2  0  0  0
 12  5  1  0  0  0
  5  6  1  0  0  0
  5 10  2  0  0  0
  6  7  2  0  0  0
  7  8  1  0  0  0
  8  1  1  0  0  0
  8  9  2  0  0  0
  1  2  1  0  0  0
  1  4  1  0  0  0
  2  3  2  0  0  0
  2 25  1  0  0  0
 25 26  2  0  0  0
 25 30  1  0  0  0
 26 27  1  0  0  0
 26 28  1  0  0  0
 28 38  1  0  0  0
 28 29  1  0  0  0
 38 39  1  0  0  0
 39 40  1  0  0  0
 39 44  1  0  0  0
 40 41  1  0  0  0
 41 42  1  0  0  0
 41 45  1  0  0  0
 42 43  2  0  0  0
 42 44  1  0  0  0
 29 32  1  0  0  0
 29 30  1  0  0  0
 32 33  1  0  0  0
 32 37  2  0  0  0
 33 34  2  0  0  0
 34 35  1  0  0  0
 35 36  2  0  0  0
 36 37  1  0  0  0
 30 31  2  0  0  0
  9 10  1  0  0  0
 10 11  1  0  0  0
 18 19  1  0  0  0
 19 20  2  0  0  0
 20 21  1  0  0  0
 21 22  1  0  0  0
M  END
> <minimizedAffinity>
-10.59793

$$$$
