CHEMBL2047249


 25 28  0  0  0  0  0  0  0  0999 V2000
  -12.5926    1.7707  -15.2636 N   0  0  0  0  0  0  0  0  0  0  0  0
  -13.9677    1.6753  -15.2148 C   0  0  0  0  0  0  0  0  0  0  0  0
  -14.6791    2.7467  -15.5624 N   0  0  0  0  0  0  0  0  0  0  0  0
  -16.0047    2.5702  -15.4827 C   0  0  0  0  0  0  0  0  0  0  0  0
  -16.6474    1.3937  -15.1017 C   0  0  0  0  0  0  0  0  0  0  0  0
  -15.8223    0.3469  -14.7739 C   0  0  0  0  0  0  0  0  0  0  0  0
  -14.4784    0.4920  -14.8497 N   0  0  0  0  0  0  0  0  0  0  0  0
  -18.0792    1.6136  -15.0937 C   0  0  0  0  0  0  0  0  0  0  0  0
  -19.1386    0.7832  -14.7658 C   0  0  0  0  0  0  0  0  0  0  0  0
  -20.4392    1.2966  -14.8406 C   0  0  0  0  0  0  0  0  0  0  0  0
  -20.6715    2.6261  -15.2301 C   0  0  0  0  0  0  0  0  0  0  0  0
  -19.6088    3.4699  -15.5509 C   0  0  0  0  0  0  0  0  0  0  0  0
  -18.3263    2.9519  -15.4794 C   0  0  0  0  0  0  0  0  0  0  0  0
  -17.0214    3.6676  -15.7548 C   0  0  0  0  0  0  0  0  0  0  0  0
  -12.3169    2.4892  -15.9159 H   0  0  0  0  0  0  0  0  0  0  0  0
  -12.1951    0.8490  -15.3842 H   0  0  0  0  0  0  0  0  0  0  0  0
  -16.3499   -0.8951  -14.3483 N   0  0  0  0  0  0  0  0  0  0  0  0
  -16.7528   -1.3792  -15.1427 H   0  0  0  0  0  0  0  0  0  0  0  0
  -15.7159   -1.7598  -13.4277 C   0  0  0  0  0  0  0  0  0  0  0  0
  -15.9364   -1.6289  -12.0467 C   0  0  0  0  0  0  0  0  0  0  0  0
  -15.3058   -2.4657  -11.1274 C   0  0  0  0  0  0  0  0  0  0  0  0
  -14.4644   -3.4723  -11.5874 C   0  0  0  0  0  0  0  0  0  0  0  0
  -13.5666   -4.5790  -10.3476 Br  0  0  0  0  0  0  0  0  0  0  0  0
  -14.2762   -3.6603  -12.9559 C   0  0  0  0  0  0  0  0  0  0  0  0
  -14.9128   -2.8174  -13.8736 C   0  0  0  0  0  0  0  0  0  0  0  0
  1  2  1  0  0  0
  1 15  1  0  0  0
  1 16  1  0  0  0
  2  3  1  0  0  0
  2  7  2  0  0  0
  3  4  2  0  0  0
  4  5  1  0  0  0
  4 14  1  0  0  0
  5  6  2  0  0  0
  5  8  1  0  0  0
  6 17  1  0  0  0
  6  7  1  0  0  0
 17 19  1  0  0  0
 17 18  1  0  0  0
 19 20  1  0  0  0
 19 25  2  0  0  0
 20 21  2  0  0  0
 21 22  1  0  0  0
 22 23  1  0  0  0
 22 24  2  0  0  0
 24 25  1  0  0  0
  8  9  1  0  0  0
  8 13  2  0  0  0
  9 10  2  0  0  0
 10 11  1  0  0  0
 11 12  2  0  0  0
 12 13  1  0  0  0
 13 14  1  0  0  0
M  END
> <minimizedAffinity>
-7.84941

$$$$
