CHEMBL598434


 26 30  0  0  0  0  0  0  0  0999 V2000
  -12.6024    3.3895  -20.7887 O   0  0  0  0  0  0  0  0  0  0  0  0
  -12.7481    3.6122  -19.5850 C   0  0  0  0  0  0  0  0  0  0  0  0
  -12.6162    2.5168  -18.5510 C   0  0  0  0  0  0  0  0  0  0  0  0
  -13.8815    2.4020  -17.7718 C   0  0  0  0  0  0  0  0  0  0  0  0
  -14.4085    1.0143  -17.5945 C   0  0  0  0  0  0  0  0  0  0  0  0
  -15.1712    0.6379  -16.6182 N   0  0  0  0  0  0  0  0  0  0  0  0
  -15.7457    1.6619  -15.9364 C   0  0  0  0  0  0  0  0  0  0  0  0
  -16.4976    1.7693  -14.8016 C   0  0  0  0  0  0  0  0  0  0  0  0
  -17.5260    2.6056  -15.3174 C   0  0  0  0  0  0  0  0  0  0  0  0
  -16.9403    3.5495  -16.1077 N   0  0  0  0  0  0  0  0  0  0  0  0
  -15.6940    2.9890  -16.3743 N   0  0  0  0  0  0  0  0  0  0  0  0
  -14.5416    3.3799  -17.0984 C   0  0  0  0  0  0  0  0  0  0  0  0
  -13.7366    4.6057  -16.8248 C   0  0  0  0  0  0  0  0  0  0  0  0
  -13.4794    4.9989  -15.5045 C   0  0  0  0  0  0  0  0  0  0  0  0
  -12.5715    5.9406  -15.1263 N   0  0  0  0  0  0  0  0  0  0  0  0
  -11.9028    6.5781  -16.1111 C   0  0  0  0  0  0  0  0  0  0  0  0
  -12.0926    6.3104  -17.4465 C   0  0  0  0  0  0  0  0  0  0  0  0
  -12.9743    5.2825  -17.7993 C   0  0  0  0  0  0  0  0  0  0  0  0
  -12.9152    4.8965  -19.1492 N   0  0  0  0  0  0  0  0  0  0  0  0
  -12.6608    5.5837  -19.8510 H   0  0  0  0  0  0  0  0  0  0  0  0
  -18.9695    2.3491  -15.0600 C   0  0  0  0  0  0  0  0  0  0  0  0
  -19.9163    3.3387  -14.7941 C   0  0  0  0  0  0  0  0  0  0  0  0
  -21.2420    2.9863  -14.4587 C   0  0  0  0  0  0  0  0  0  0  0  0
  -21.6506    1.6492  -14.4218 C   0  0  0  0  0  0  0  0  0  0  0  0
  -20.7554    0.6589  -14.7964 C   0  0  0  0  0  0  0  0  0  0  0  0
  -19.4444    1.0111  -15.1263 C   0  0  0  0  0  0  0  0  0  0  0  0
  1  2  2  0  0  0
  2  3  1  0  0  0
  2 19  1  0  0  0
  3  4  1  0  0  0
  4  5  1  0  0  0
  4 12  2  0  0  0
  5  6  2  0  0  0
  6  7  1  0  0  0
  7  8  2  0  0  0
  7 11  1  0  0  0
  8  9  1  0  0  0
  9 21  1  0  0  0
  9 10  2  0  0  0
 21 22  1  0  0  0
 21 26  2  0  0  0
 22 23  2  0  0  0
 23 24  1  0  0  0
 24 25  2  0  0  0
 25 26  1  0  0  0
 10 11  1  0  0  0
 11 12  1  0  0  0
 12 13  1  0  0  0
 13 14  1  0  0  0
 13 18  2  0  0  0
 14 15  2  0  0  0
 15 16  1  0  0  0
 16 17  2  0  0  0
 17 18  1  0  0  0
 18 19  1  0  0  0
 19 20  1  0  0  0
M  END
> <minimizedAffinity>
-8.17888

$$$$
