CHEMBL3921563


 37 40  0  0  0  0  0  0  0  0999 V2000
  -15.1159   -2.8874  -11.7794 C   0  0  0  0  0  0  0  0  0  0  0  0
  -13.9066   -3.5959  -11.8055 C   0  0  0  0  0  0  0  0  0  0  0  0
  -13.8857   -4.9953  -11.7824 C   0  0  0  0  0  0  0  0  0  0  0  0
  -15.0754   -5.7163  -11.6674 C   0  0  0  0  0  0  0  0  0  0  0  0
  -16.2789   -5.0002  -11.6144 C   0  0  0  0  0  0  0  0  0  0  0  0
  -17.4472   -5.6581  -11.5681 F   0  0  0  0  0  0  0  0  0  0  0  0
  -16.3086   -3.5971  -11.6433 C   0  0  0  0  0  0  0  0  0  0  0  0
  -15.6735    0.4343  -13.1702 N   0  0  0  0  0  0  0  0  0  0  0  0
  -15.7425   -0.9519  -13.1028 C   0  0  0  0  0  0  0  0  0  0  0  0
  -16.2847   -1.6493  -13.9524 O   0  0  0  0  0  0  0  0  0  0  0  0
  -15.1389   -1.4769  -11.9659 N   0  0  0  0  0  0  0  0  0  0  0  0
  -14.8544    0.8497  -12.7511 H   0  0  0  0  0  0  0  0  0  0  0  0
  -15.2389   -0.9030  -11.1400 H   0  0  0  0  0  0  0  0  0  0  0  0
  -18.3846    2.2478  -14.9840 C   0  0  0  0  0  0  0  0  0  0  0  0
  -17.6645    2.8117  -16.0479 C   0  0  0  0  0  0  0  0  0  0  0  0
  -16.3109    2.5404  -16.1981 C   0  0  0  0  0  0  0  0  0  0  0  0
  -15.6599    1.7290  -15.2699 C   0  0  0  0  0  0  0  0  0  0  0  0
  -16.3433    1.1801  -14.1772 C   0  0  0  0  0  0  0  0  0  0  0  0
  -17.7209    1.4029  -14.0681 C   0  0  0  0  0  0  0  0  0  0  0  0
  -20.6543    1.4203  -14.3697 C   0  0  0  0  0  0  0  0  0  0  0  0
  -19.8320    2.6314  -14.7903 C   0  0  0  0  0  0  0  0  0  0  0  0
  -20.3940    3.1498  -15.9210 F   0  0  0  0  0  0  0  0  0  0  0  0
  -19.9988    3.5949  -13.8326 F   0  0  0  0  0  0  0  0  0  0  0  0
  -15.1393   -7.1007  -11.6852 O   0  0  0  0  0  0  0  0  0  0  0  0
  -14.2485   -7.8266  -12.4608 C   0  0  0  0  0  0  0  0  0  0  0  0
  -13.2290   -8.5960  -11.9102 C   0  0  0  0  0  0  0  0  0  0  0  0
  -12.3757   -9.2379  -12.7743 C   0  0  0  0  0  0  0  0  0  0  0  0
  -12.5190   -9.2098  -14.1089 N   0  0  0  0  0  0  0  0  0  0  0  0
  -13.5461   -8.5413  -14.6604 C   0  0  0  0  0  0  0  0  0  0  0  0
  -14.4367   -7.8242  -13.8589 C   0  0  0  0  0  0  0  0  0  0  0  0
  -13.6917   -8.5848  -16.0714 N   0  0  0  0  0  0  0  0  0  0  0  0
  -13.5128   -7.4576  -16.8669 C   0  0  0  0  0  0  0  0  0  0  0  0
  -13.2042   -6.3379  -16.4839 O   0  0  0  0  0  0  0  0  0  0  0  0
  -13.9065   -9.4700  -16.5083 H   0  0  0  0  0  0  0  0  0  0  0  0
  -13.6941   -7.5739  -18.3441 C   0  0  0  0  0  0  0  0  0  0  0  0
  -13.6563   -8.7768  -19.2363 C   0  0  0  0  0  0  0  0  0  0  0  0
  -12.4898   -7.8290  -19.2219 C   0  0  0  0  0  0  0  0  0  0  0  0
 20 21  1  0  0  0
 21 22  1  0  0  0
 21 23  1  0  0  0
 21 14  1  0  0  0
 14 15  1  0  0  0
 14 19  2  0  0  0
 15 16  2  0  0  0
 16 17  1  0  0  0
 17 18  2  0  0  0
 18  8  1  0  0  0
 18 19  1  0  0  0
  8  9  1  0  0  0
  8 12  1  0  0  0
  9 10  2  0  0  0
  9 11  1  0  0  0
 11  1  1  0  0  0
 11 13  1  0  0  0
  1  2  1  0  0  0
  1  7  2  0  0  0
  2  3  2  0  0  0
  3  4  1  0  0  0
  4 24  1  0  0  0
  4  5  2  0  0  0
 24 25  1  0  0  0
 25 26  1  0  0  0
 25 30  2  0  0  0
 26 27  2  0  0  0
 27 28  1  0  0  0
 28 29  2  0  0  0
 29 31  1  0  0  0
 29 30  1  0  0  0
 31 32  1  0  0  0
 31 34  1  0  0  0
 32 33  2  0  0  0
 32 35  1  0  0  0
 35 36  1  0  0  0
 35 37  1  0  0  0
 36 37  1  0  0  0
  5  6  1  0  0  0
  5  7  1  0  0  0
M  END
> <minimizedAffinity>
-9.52005

$$$$
