CHEMBL3753532


 28 30  0  0  0  0  0  0  0  0999 V2000
  -28.8020   -3.7933   -7.6922 C   0  0  0  0  0  0  0  0  0  0  0  0
  -28.1274   -3.5047   -8.8816 C   0  0  0  0  0  0  0  0  0  0  0  0
  -27.5307   -2.2695   -9.1111 C   0  0  0  0  0  0  0  0  0  0  0  0
  -27.6487   -1.2784   -8.1262 C   0  0  0  0  0  0  0  0  0  0  0  0
  -28.3467   -1.5223   -6.9234 C   0  0  0  0  0  0  0  0  0  0  0  0
  -28.8893   -2.8091   -6.6882 C   0  0  0  0  0  0  0  0  0  0  0  0
  -26.8653   -1.9734  -10.3113 N   0  0  0  0  0  0  0  0  0  0  0  0
  -27.4248   -1.7341  -11.5499 C   0  0  0  0  0  0  0  0  0  0  0  0
  -28.6098   -1.8363  -11.8575 O   0  0  0  0  0  0  0  0  0  0  0  0
  -26.5952   -1.1495  -12.4668 N   0  0  0  0  0  0  0  0  0  0  0  0
  -25.8510   -1.8762  -10.2739 H   0  0  0  0  0  0  0  0  0  0  0  0
  -27.0902   -0.6656  -13.2013 H   0  0  0  0  0  0  0  0  0  0  0  0
  -25.2144   -1.0376  -12.3873 C   0  0  0  0  0  0  0  0  0  0  0  0
  -24.6554    0.2256  -12.4811 C   0  0  0  0  0  0  0  0  0  0  0  0
  -23.2777    0.3464  -12.3319 C   0  0  0  0  0  0  0  0  0  0  0  0
  -22.5029   -0.7982  -12.1884 C   0  0  0  0  0  0  0  0  0  0  0  0
  -23.1454   -2.0223  -12.1478 C   0  0  0  0  0  0  0  0  0  0  0  0
  -24.4861   -2.1575  -12.1895 N   0  0  0  0  0  0  0  0  0  0  0  0
  -28.5317   -0.4057   -6.0020 C   0  0  0  0  0  0  0  0  0  0  0  0
  -27.6452    0.0384   -5.0419 C   0  0  0  0  0  0  0  0  0  0  0  0
  -28.3096    1.0260   -4.3648 N   0  0  0  0  0  0  0  0  0  0  0  0
  -29.5307    1.1774   -4.9516 C   0  0  0  0  0  0  0  0  0  0  0  0
  -29.6835    0.3589   -5.9686 N   0  0  0  0  0  0  0  0  0  0  0  0
  -27.9697    1.5320   -3.5577 H   0  0  0  0  0  0  0  0  0  0  0  0
  -28.6680   -6.1074   -7.1244 C   0  0  0  0  0  0  0  0  0  0  0  0
  -29.4575   -4.9856   -7.5031 O   0  0  0  0  0  0  0  0  0  0  0  0
  -29.5606   -3.0016   -5.5003 O   0  0  0  0  0  0  0  0  0  0  0  0
  -28.7899   -3.5385   -4.4296 C   0  0  0  0  0  0  0  0  0  0  0  0
 25 26  1  0  0  0
 26  1  1  0  0  0
  1  2  1  0  0  0
  1  6  2  0  0  0
  2  3  2  0  0  0
  3  7  1  0  0  0
  3  4  1  0  0  0
  7  8  1  0  0  0
  7 11  1  0  0  0
  8  9  2  0  0  0
  8 10  1  0  0  0
 10 13  1  0  0  0
 10 12  1  0  0  0
 13 14  1  0  0  0
 13 18  2  0  0  0
 14 15  2  0  0  0
 15 16  1  0  0  0
 16 17  2  0  0  0
 17 18  1  0  0  0
  4  5  2  0  0  0
  5 19  1  0  0  0
  5  6  1  0  0  0
 19 20  2  0  0  0
 19 23  1  0  0  0
 20 21  1  0  0  0
 21 22  1  0  0  0
 21 24  1  0  0  0
 22 23  2  0  0  0
  6 27  1  0  0  0
 27 28  1  0  0  0
M  END
> <minimizedAffinity>
-7.38451

$$$$
