CHEMBL3960801


 35 39  0  0  0  0  0  0  0  0999 V2000
  -29.1718   -6.3123   -6.3148 C   0  0  0  0  0  0  0  0  0  0  0  0
  -28.3474   -5.7747   -5.3146 C   0  0  0  0  0  0  0  0  0  0  0  0
  -27.6926   -6.6076   -4.3753 C   0  0  0  0  0  0  0  0  0  0  0  0
  -28.0130   -7.9834   -4.3738 C   0  0  0  0  0  0  0  0  0  0  0  0
  -27.6901   -9.1923   -3.6508 C   0  0  0  0  0  0  0  0  0  0  0  0
  -28.8840   -9.7933   -3.4504 N   0  0  0  0  0  0  0  0  0  0  0  0
  -29.5053   -9.5347   -4.6216 N   0  0  0  0  0  0  0  0  0  0  0  0
  -29.0272   -8.4012   -5.2246 C   0  0  0  0  0  0  0  0  0  0  0  0
  -29.4874   -7.6739   -6.3151 C   0  0  0  0  0  0  0  0  0  0  0  0
  -30.3254  -10.0759   -4.8604 H   0  0  0  0  0  0  0  0  0  0  0  0
  -26.6564  -10.1731   -3.9907 C   0  0  0  0  0  0  0  0  0  0  0  0
  -25.4452  -10.2190   -3.3915 C   0  0  0  0  0  0  0  0  0  0  0  0
  -24.1751  -10.3419   -4.1315 C   0  0  0  0  0  0  0  0  0  0  0  0
  -23.1155  -11.1371   -3.6451 C   0  0  0  0  0  0  0  0  0  0  0  0
  -22.0288  -11.4758   -4.4616 C   0  0  0  0  0  0  0  0  0  0  0  0
  -21.9797  -11.0223   -5.7772 C   0  0  0  0  0  0  0  0  0  0  0  0
  -23.0066  -10.2203   -6.2656 C   0  0  0  0  0  0  0  0  0  0  0  0
  -24.1001   -9.8833   -5.4501 C   0  0  0  0  0  0  0  0  0  0  0  0
  -30.0603   -5.2769   -7.4654 S   0  0  0  0  0  0  0  0  0  0  0  0
  -27.5676   -2.2660   -8.5205 C   0  0  0  0  0  0  0  0  0  0  0  0
  -27.7988   -1.2983   -7.5436 C   0  0  0  0  0  0  0  0  0  0  0  0
  -28.6825   -1.5489   -6.4924 C   0  0  0  0  0  0  0  0  0  0  0  0
  -29.3680   -2.7608   -6.4239 C   0  0  0  0  0  0  0  0  0  0  0  0
  -29.2059   -3.7136   -7.4314 C   0  0  0  0  0  0  0  0  0  0  0  0
  -28.2922   -3.4626   -8.4678 C   0  0  0  0  0  0  0  0  0  0  0  0
  -27.9704   -1.2038  -11.2478 O   0  0  0  0  0  0  0  0  0  0  0  0
  -26.8950   -1.6187  -10.8312 C   0  0  0  0  0  0  0  0  0  0  0  0
  -26.6303   -2.1113   -9.5658 N   0  0  0  0  0  0  0  0  0  0  0  0
  -25.6581   -2.2430   -9.3157 H   0  0  0  0  0  0  0  0  0  0  0  0
  -25.7181   -1.5318  -11.7357 C   0  0  0  0  0  0  0  0  0  0  0  0
  -25.9481   -1.4939  -13.1169 C   0  0  0  0  0  0  0  0  0  0  0  0
  -24.8744   -1.4250  -14.0035 C   0  0  0  0  0  0  0  0  0  0  0  0
  -23.5693   -1.4043  -13.5129 C   0  0  0  0  0  0  0  0  0  0  0  0
  -23.3349   -1.4573  -12.1377 C   0  0  0  0  0  0  0  0  0  0  0  0
  -24.4069   -1.5233  -11.2450 C   0  0  0  0  0  0  0  0  0  0  0  0
 26 27  2  0  0  0
 27 28  1  0  0  0
 27 30  1  0  0  0
 28 20  1  0  0  0
 28 29  1  0  0  0
 20 21  1  0  0  0
 20 25  2  0  0  0
 21 22  2  0  0  0
 22 23  1  0  0  0
 23 24  2  0  0  0
 24 19  1  0  0  0
 24 25  1  0  0  0
 19  1  1  0  0  0
  1  2  1  0  0  0
  1  9  2  0  0  0
  2  3  2  0  0  0
  3  4  1  0  0  0
  4  5  1  0  0  0
  4  8  2  0  0  0
  5 11  1  0  0  0
  5  6  2  0  0  0
 11 12  2  0  0  0
 12 13  1  0  0  0
 13 14  1  0  0  0
 13 18  2  0  0  0
 14 15  2  0  0  0
 15 16  1  0  0  0
 16 17  2  0  0  0
 17 18  1  0  0  0
  6  7  1  0  0  0
  7  8  1  0  0  0
  7 10  1  0  0  0
  8  9  1  0  0  0
 30 31  1  0  0  0
 30 35  2  0  0  0
 31 32  2  0  0  0
 32 33  1  0  0  0
 33 34  2  0  0  0
 34 35  1  0  0  0
M  END
> <minimizedAffinity>
-10.70425

$$$$
