CHEMBL171558


 33 37  0  0  0  0  0  0  0  0999 V2000
  -29.2266   -6.6458   -6.1541 C   0  0  0  0  0  0  0  0  0  0  0  0
  -28.8342   -5.4948   -5.4820 C   0  0  0  0  0  0  0  0  0  0  0  0
  -29.7138   -4.8104   -4.6219 C   0  0  0  0  0  0  0  0  0  0  0  0
  -29.3875   -3.5916   -4.0063 C   0  0  0  0  0  0  0  0  0  0  0  0
  -30.2050   -3.0064   -3.1219 N   0  0  0  0  0  0  0  0  0  0  0  0
  -31.3633   -3.6171   -2.8790 C   0  0  0  0  0  0  0  0  0  0  0  0
  -31.7991   -4.7477   -3.4544 N   0  0  0  0  0  0  0  0  0  0  0  0
  -30.9672   -5.3352   -4.3234 C   0  0  0  0  0  0  0  0  0  0  0  0
  -31.3298   -6.5247   -4.9524 C   0  0  0  0  0  0  0  0  0  0  0  0
  -30.4868   -7.1931   -5.8565 C   0  0  0  0  0  0  0  0  0  0  0  0
  -28.0904   -6.5708   -8.2866 C   0  0  0  0  0  0  0  0  0  0  0  0
  -28.4337   -7.2454   -7.0845 O   0  0  0  0  0  0  0  0  0  0  0  0
  -28.1773   -2.9404   -4.3830 N   0  0  0  0  0  0  0  0  0  0  0  0
  -27.5004   -3.6415   -4.6650 H   0  0  0  0  0  0  0  0  0  0  0  0
  -28.1354   -1.7949   -5.2078 C   0  0  0  0  0  0  0  0  0  0  0  0
  -28.1838   -0.5147   -4.6109 C   0  0  0  0  0  0  0  0  0  0  0  0
  -28.2135    0.6553   -5.3611 C   0  0  0  0  0  0  0  0  0  0  0  0
  -28.1740    0.6063   -6.7549 C   0  0  0  0  0  0  0  0  0  0  0  0
  -28.0669   -0.6554   -7.3300 C   0  0  0  0  0  0  0  0  0  0  0  0
  -27.9911   -0.8942   -8.6691 O   0  0  0  0  0  0  0  0  0  0  0  0
  -27.8968   -2.2384   -8.8275 C   0  0  0  0  0  0  0  0  0  0  0  0
  -27.9070   -2.8715   -7.6065 C   0  0  0  0  0  0  0  0  0  0  0  0
  -28.0253   -1.8506   -6.6173 C   0  0  0  0  0  0  0  0  0  0  0  0
  -31.0368   -8.3630   -6.3246 O   0  0  0  0  0  0  0  0  0  0  0  0
  -31.4316   -8.4458   -7.6925 C   0  0  0  0  0  0  0  0  0  0  0  0
  -30.8892   -9.7179   -8.3226 C   0  0  0  0  0  0  0  0  0  0  0  0
  -29.8560   -9.4757   -9.4192 C   0  0  0  0  0  0  0  0  0  0  0  0
  -29.3471  -10.7482   -9.9668 N   0  0  0  0  0  0  0  0  0  0  0  0
  -28.3302  -11.3443   -9.0718 C   0  0  0  0  0  0  0  0  0  0  0  0
  -26.9497  -10.6605   -9.1308 C   0  0  0  0  0  0  0  0  0  0  0  0
  -26.4559  -10.5414  -10.4719 O   0  0  0  0  0  0  0  0  0  0  0  0
  -27.4049   -9.8695  -11.3087 C   0  0  0  0  0  0  0  0  0  0  0  0
  -28.7413  -10.6230  -11.3126 C   0  0  0  0  0  0  0  0  0  0  0  0
 11 12  1  0  0  0
 12  1  1  0  0  0
  1  2  1  0  0  0
  1 10  2  0  0  0
  2  3  2  0  0  0
  3  4  1  0  0  0
  3  8  1  0  0  0
  4 13  1  0  0  0
  4  5  2  0  0  0
 13 15  1  0  0  0
 13 14  1  0  0  0
 15 16  1  0  0  0
 15 23  2  0  0  0
 16 17  2  0  0  0
 17 18  1  0  0  0
 18 19  2  0  0  0
 19 20  1  0  0  0
 19 23  1  0  0  0
 20 21  1  0  0  0
 21 22  2  0  0  0
 22 23  1  0  0  0
  5  6  1  0  0  0
  6  7  2  0  0  0
  7  8  1  0  0  0
  8  9  2  0  0  0
  9 10  1  0  0  0
 10 24  1  0  0  0
 24 25  1  0  0  0
 25 26  1  0  0  0
 26 27  1  0  0  0
 27 28  1  0  0  0
 28 29  1  0  0  0
 28 33  1  0  0  0
 29 30  1  0  0  0
 30 31  1  0  0  0
 31 32  1  0  0  0
 32 33  1  0  0  0
M  END
> <minimizedAffinity>
-8.07077

$$$$
