CHEMBL233667


 29 32  0  0  0  0  0  0  0  0999 V2000
  -30.3587   -7.7941   -5.0869 N   0  0  0  0  0  0  0  0  0  0  0  0
  -31.1250   -8.2789   -5.5294 H   0  0  0  0  0  0  0  0  0  0  0  0
  -27.0609   -9.9166   -6.3361 C   0  0  0  0  0  0  0  0  0  0  0  0
  -27.2417   -9.5438   -5.0248 C   0  0  0  0  0  0  0  0  0  0  0  0
  -28.2661   -8.7880   -4.6012 N   0  0  0  0  0  0  0  0  0  0  0  0
  -29.1596   -8.3778   -5.5208 C   0  0  0  0  0  0  0  0  0  0  0  0
  -29.0085   -8.6089   -6.8286 N   0  0  0  0  0  0  0  0  0  0  0  0
  -27.9817   -9.4107   -7.2342 C   0  0  0  0  0  0  0  0  0  0  0  0
  -28.0369   -9.7662   -8.6746 C   0  0  0  0  0  0  0  0  0  0  0  0
  -29.0043  -10.6295   -9.2197 C   0  0  0  0  0  0  0  0  0  0  0  0
  -29.0583  -10.8822  -10.5946 C   0  0  0  0  0  0  0  0  0  0  0  0
  -28.1292  -10.3016  -11.4516 C   0  0  0  0  0  0  0  0  0  0  0  0
  -27.1390   -9.4725  -10.9354 C   0  0  0  0  0  0  0  0  0  0  0  0
  -27.0975   -9.2094   -9.5652 C   0  0  0  0  0  0  0  0  0  0  0  0
  -25.1394  -11.5210   -6.8896 N   0  0  0  0  0  0  0  0  0  0  0  0
  -26.0136  -10.8120   -6.6503 C   0  0  0  0  0  0  0  0  0  0  0  0
  -30.5384   -6.3993   -4.9459 C   0  0  0  0  0  0  0  0  0  0  0  0
  -31.3878   -5.8985   -3.9454 C   0  0  0  0  0  0  0  0  0  0  0  0
  -31.5276   -4.5341   -3.7286 C   0  0  0  0  0  0  0  0  0  0  0  0
  -30.8858   -3.6409   -4.5742 C   0  0  0  0  0  0  0  0  0  0  0  0
  -30.1643   -4.1016   -5.6860 C   0  0  0  0  0  0  0  0  0  0  0  0
  -29.9720   -5.4886   -5.8481 C   0  0  0  0  0  0  0  0  0  0  0  0
  -29.6093   -3.0948   -6.6687 C   0  0  0  0  0  0  0  0  0  0  0  0
  -28.2086   -2.6808   -6.5278 N   0  0  0  0  0  0  0  0  0  0  0  0
  -27.6711   -2.5528   -5.1649 C   0  0  0  0  0  0  0  0  0  0  0  0
  -27.8208   -1.1597   -4.5175 C   0  0  0  0  0  0  0  0  0  0  0  0
  -27.3993   -0.0989   -5.3845 O   0  0  0  0  0  0  0  0  0  0  0  0
  -28.0499   -0.1692   -6.6576 C   0  0  0  0  0  0  0  0  0  0  0  0
  -27.8013   -1.5234   -7.3317 C   0  0  0  0  0  0  0  0  0  0  0  0
 15 16  3  0  0  0
 16  3  1  0  0  0
  3  4  1  0  0  0
  3  8  2  0  0  0
  4  5  2  0  0  0
  5  6  1  0  0  0
  6  1  1  0  0  0
  6  7  2  0  0  0
  1 17  1  0  0  0
  1  2  1  0  0  0
 17 18  1  0  0  0
 17 22  2  0  0  0
 18 19  2  0  0  0
 19 20  1  0  0  0
 20 21  2  0  0  0
 21 23  1  0  0  0
 21 22  1  0  0  0
 23 24  1  0  0  0
 24 25  1  0  0  0
 24 29  1  0  0  0
 25 26  1  0  0  0
 26 27  1  0  0  0
 27 28  1  0  0  0
 28 29  1  0  0  0
  7  8  1  0  0  0
  8  9  1  0  0  0
  9 10  1  0  0  0
  9 14  2  0  0  0
 10 11  2  0  0  0
 11 12  1  0  0  0
 12 13  2  0  0  0
 13 14  1  0  0  0
M  END
> <minimizedAffinity>
-7.98994

$$$$
