CHEMBL599993


 28 30  0  0  0  0  0  0  0  0999 V2000
  -29.8705   -7.5800   -5.7178 C   0  0  0  0  0  0  0  0  0  0  0  0
  -28.6221   -7.7917   -5.1282 C   0  0  0  0  0  0  0  0  0  0  0  0
  -27.9237   -6.7258   -4.5518 C   0  0  0  0  0  0  0  0  0  0  0  0
  -28.4118   -5.4293   -4.5947 C   0  0  0  0  0  0  0  0  0  0  0  0
  -27.6873   -4.4484   -4.0353 N   0  0  0  0  0  0  0  0  0  0  0  0
  -28.1440   -3.1790   -4.1519 C   0  0  0  0  0  0  0  0  0  0  0  0
  -29.3126   -2.8146   -4.8073 C   0  0  0  0  0  0  0  0  0  0  0  0
  -30.0641   -3.8531   -5.3655 C   0  0  0  0  0  0  0  0  0  0  0  0
  -29.6339   -5.1928   -5.2553 C   0  0  0  0  0  0  0  0  0  0  0  0
  -30.3643   -6.2788   -5.7970 C   0  0  0  0  0  0  0  0  0  0  0  0
  -29.7188   -1.4094   -4.9833 C   0  0  0  0  0  0  0  0  0  0  0  0
  -28.9299   -0.4634   -5.5215 C   0  0  0  0  0  0  0  0  0  0  0  0
  -29.3175    0.9664   -5.7133 C   0  0  0  0  0  0  0  0  0  0  0  0
  -28.4730    1.5468   -6.7445 N   0  0  0  0  0  0  0  0  0  0  0  0
  -27.5095    1.5608   -6.4124 H   0  0  0  0  0  0  0  0  0  0  0  0
  -28.7374    2.5192   -6.8888 H   0  0  0  0  0  0  0  0  0  0  0  0
  -30.4875   -8.6879   -6.2337 O   0  0  0  0  0  0  0  0  0  0  0  0
  -32.1894   -9.2688   -7.9139 C   0  0  0  0  0  0  0  0  0  0  0  0
  -30.7761   -8.7400   -7.6478 C   0  0  0  0  0  0  0  0  0  0  0  0
  -29.7215   -9.5863   -8.3856 C   0  0  0  0  0  0  0  0  0  0  0  0
  -29.8633  -10.9932   -8.4766 C   0  0  0  0  0  0  0  0  0  0  0  0
  -31.0784  -11.8563   -7.5929 Cl  0  0  0  0  0  0  0  0  0  0  0  0
  -28.9946  -11.7835   -9.2516 C   0  0  0  0  0  0  0  0  0  0  0  0
  -27.9519  -11.1889   -9.9541 C   0  0  0  0  0  0  0  0  0  0  0  0
  -27.7402   -9.8222   -9.8039 C   0  0  0  0  0  0  0  0  0  0  0  0
  -26.6996   -9.2778  -10.4547 F   0  0  0  0  0  0  0  0  0  0  0  0
  -28.5795   -9.0317   -9.0039 C   0  0  0  0  0  0  0  0  0  0  0  0
  -28.0798   -7.3923   -8.7454 Cl  0  0  0  0  0  0  0  0  0  0  0  0
 18 19  1  0  0  0
 19 17  1  0  0  0
 19 20  1  0  0  0
 17  1  1  0  0  0
  1  2  1  0  0  0
  1 10  2  0  0  0
  2  3  2  0  0  0
  3  4  1  0  0  0
  4  5  1  0  0  0
  4  9  2  0  0  0
  5  6  2  0  0  0
  6  7  1  0  0  0
  7 11  1  0  0  0
  7  8  2  0  0  0
 11 12  2  0  0  0
 12 13  1  0  0  0
 13 14  1  0  0  0
 14 15  1  0  0  0
 14 16  1  0  0  0
  8  9  1  0  0  0
  9 10  1  0  0  0
 20 21  1  0  0  0
 20 27  2  0  0  0
 21 22  1  0  0  0
 21 23  2  0  0  0
 23 24  1  0  0  0
 24 25  2  0  0  0
 25 26  1  0  0  0
 25 27  1  0  0  0
 27 28  1  0  0  0
M  END
> <minimizedAffinity>
-8.13323

$$$$
