CHEMBL3298000


 21 23  0  0  0  0  0  0  0  0999 V2000
  -30.2467   -6.8940   -5.8072 C   0  0  0  0  0  0  0  0  0  0  0  0
  -31.2171   -7.4579   -6.5895 N   0  0  0  0  0  0  0  0  0  0  0  0
  -31.1634   -8.7722   -6.9848 C   0  0  0  0  0  0  0  0  0  0  0  0
  -32.2654   -9.3499   -7.8090 C   0  0  0  0  0  0  0  0  0  0  0  0
  -30.1140   -9.5653   -6.6142 N   0  0  0  0  0  0  0  0  0  0  0  0
  -29.1248   -9.0248   -5.8684 C   0  0  0  0  0  0  0  0  0  0  0  0
  -28.0418   -9.6338   -5.4428 O   0  0  0  0  0  0  0  0  0  0  0  0
  -27.3379   -8.7388   -4.7700 C   0  0  0  0  0  0  0  0  0  0  0  0
  -26.0419   -9.0031   -4.0834 C   0  0  0  0  0  0  0  0  0  0  0  0
  -27.9735   -7.5131   -4.7757 C   0  0  0  0  0  0  0  0  0  0  0  0
  -29.1522   -7.7185   -5.4678 C   0  0  0  0  0  0  0  0  0  0  0  0
  -30.3522   -5.5194   -5.3941 N   0  0  0  0  0  0  0  0  0  0  0  0
  -31.1881   -5.2146   -4.2424 C   0  0  0  0  0  0  0  0  0  0  0  0
  -28.1148   -2.5906   -7.5299 C   0  0  0  0  0  0  0  0  0  0  0  0
  -28.1511   -2.5818   -6.1262 C   0  0  0  0  0  0  0  0  0  0  0  0
  -28.9347   -3.5040   -5.4415 C   0  0  0  0  0  0  0  0  0  0  0  0
  -29.6800   -4.4835   -6.1320 C   0  0  0  0  0  0  0  0  0  0  0  0
  -29.6995   -4.4396   -7.5395 C   0  0  0  0  0  0  0  0  0  0  0  0
  -28.9228   -3.4986   -8.2257 C   0  0  0  0  0  0  0  0  0  0  0  0
  -27.1928   -1.7528   -9.6156 C   0  0  0  0  0  0  0  0  0  0  0  0
  -27.3025   -1.7650   -8.2367 O   0  0  0  0  0  0  0  0  0  0  0  0
 20 21  1  0  0  0
 21 14  1  0  0  0
 14 15  1  0  0  0
 14 19  2  0  0  0
 15 16  2  0  0  0
 16 17  1  0  0  0
 17 12  1  0  0  0
 17 18  2  0  0  0
 12 13  1  0  0  0
 12  1  1  0  0  0
  1  2  1  0  0  0
  1 11  2  0  0  0
  2  3  2  0  0  0
  3  4  1  0  0  0
  3  5  1  0  0  0
  5  6  2  0  0  0
  6  7  1  0  0  0
  6 11  1  0  0  0
  7  8  1  0  0  0
  8  9  1  0  0  0
  8 10  2  0  0  0
 10 11  1  0  0  0
 18 19  1  0  0  0
M  END
> <minimizedAffinity>
-7.14288

$$$$
