CHEMBL188536


 28 30  0  0  0  0  0  0  0  0999 V2000
  -28.9984   -2.9953   -6.4496 C   0  0  0  0  0  0  0  0  0  0  0  0
  -28.7359   -1.7289   -5.9329 C   0  0  0  0  0  0  0  0  0  0  0  0
  -28.0739   -0.7720   -6.6207 N   0  0  0  0  0  0  0  0  0  0  0  0
  -27.6699   -1.1436   -7.8601 C   0  0  0  0  0  0  0  0  0  0  0  0
  -27.8968   -2.4069   -8.4134 C   0  0  0  0  0  0  0  0  0  0  0  0
  -28.5747   -3.3346   -7.7015 N   0  0  0  0  0  0  0  0  0  0  0  0
  -30.3850   -6.3640   -5.3188 C   0  0  0  0  0  0  0  0  0  0  0  0
  -31.1534   -5.8885   -4.2553 C   0  0  0  0  0  0  0  0  0  0  0  0
  -31.2802   -4.5868   -3.9121 N   0  0  0  0  0  0  0  0  0  0  0  0
  -30.5830   -3.6971   -4.6588 C   0  0  0  0  0  0  0  0  0  0  0  0
  -29.7279   -4.0325   -5.7064 C   0  0  0  0  0  0  0  0  0  0  0  0
  -29.6270   -5.4049   -6.0048 C   0  0  0  0  0  0  0  0  0  0  0  0
  -30.2473   -7.7266   -5.6532 N   0  0  0  0  0  0  0  0  0  0  0  0
  -29.3215   -8.0670   -5.4011 H   0  0  0  0  0  0  0  0  0  0  0  0
  -30.5667   -8.0658   -7.0465 C   0  0  0  0  0  0  0  0  0  0  0  0
  -32.0819   -8.0842   -7.2550 C   0  0  0  0  0  0  0  0  0  0  0  0
  -32.4005   -9.8865   -8.8166 O   0  0  0  0  0  0  0  0  0  0  0  0
  -32.5880   -9.5045   -7.4610 C   0  0  0  0  0  0  0  0  0  0  0  0
  -32.7352  -10.7956   -8.9111 H   0  0  0  0  0  0  0  0  0  0  0  0
  -27.3616   -2.7061   -9.6667 N   0  0  0  0  0  0  0  0  0  0  0  0
  -26.4668   -3.1813   -9.6121 H   0  0  0  0  0  0  0  0  0  0  0  0
  -27.4523   -1.7070  -10.7184 C   0  0  0  0  0  0  0  0  0  0  0  0
  -26.2456   -1.6921  -11.6283 C   0  0  0  0  0  0  0  0  0  0  0  0
  -26.4065   -1.6965  -13.0233 C   0  0  0  0  0  0  0  0  0  0  0  0
  -25.3007   -1.5659  -13.8707 C   0  0  0  0  0  0  0  0  0  0  0  0
  -24.0242   -1.4325  -13.3322 C   0  0  0  0  0  0  0  0  0  0  0  0
  -23.8482   -1.4512  -11.9492 C   0  0  0  0  0  0  0  0  0  0  0  0
  -24.9519   -1.5817  -11.1020 C   0  0  0  0  0  0  0  0  0  0  0  0
 17 18  1  0  0  0
 17 19  1  0  0  0
 18 16  1  0  0  0
 16 15  1  0  0  0
 15 13  1  0  0  0
 13  7  1  0  0  0
 13 14  1  0  0  0
  7  8  1  0  0  0
  7 12  2  0  0  0
  8  9  2  0  0  0
  9 10  1  0  0  0
 10 11  2  0  0  0
 11  1  1  0  0  0
 11 12  1  0  0  0
  1  2  1  0  0  0
  1  6  2  0  0  0
  2  3  2  0  0  0
  3  4  1  0  0  0
  4  5  2  0  0  0
  5 20  1  0  0  0
  5  6  1  0  0  0
 20 22  1  0  0  0
 20 21  1  0  0  0
 22 23  1  0  0  0
 23 24  1  0  0  0
 23 28  2  0  0  0
 24 25  2  0  0  0
 25 26  1  0  0  0
 26 27  2  0  0  0
 27 28  1  0  0  0
M  END
> <minimizedAffinity>
-8.70355

$$$$
