CHEMBL3657549


 33 37  0  0  0  0  0  0  0  0999 V2000
  -29.6978   -7.6327   -6.3173 C   0  0  0  0  0  0  0  0  0  0  0  0
  -28.3923   -7.9868   -6.4530 N   0  0  0  0  0  0  0  0  0  0  0  0
  -28.1162   -9.2113   -6.9254 C   0  0  0  0  0  0  0  0  0  0  0  0
  -29.0676  -10.0662   -7.3384 N   0  0  0  0  0  0  0  0  0  0  0  0
  -30.3507   -9.6553   -7.2483 C   0  0  0  0  0  0  0  0  0  0  0  0
  -30.7277   -8.4486   -6.7181 C   0  0  0  0  0  0  0  0  0  0  0  0
  -32.0191   -8.1050   -6.6733 F   0  0  0  0  0  0  0  0  0  0  0  0
  -31.8563   -4.3672   -3.2646 C   0  0  0  0  0  0  0  0  0  0  0  0
  -30.9736   -4.8664   -4.3527 C   0  0  0  0  0  0  0  0  0  0  0  0
  -30.8117   -6.2159   -4.6188 C   0  0  0  0  0  0  0  0  0  0  0  0
  -29.9679   -6.3869   -5.6887 N   0  0  0  0  0  0  0  0  0  0  0  0
  -29.5495   -5.1384   -6.0825 C   0  0  0  0  0  0  0  0  0  0  0  0
  -30.2002   -4.1576   -5.3409 C   0  0  0  0  0  0  0  0  0  0  0  0
  -30.1860   -2.7047   -5.7470 C   0  0  0  0  0  0  0  0  0  0  0  0
  -29.6060   -1.7679   -4.7732 N   0  0  0  0  0  0  0  0  0  0  0  0
  -29.0152   -0.5426   -5.3578 C   0  0  0  0  0  0  0  0  0  0  0  0
  -27.6666   -1.2638   -5.5485 C   0  0  0  0  0  0  0  0  0  0  0  0
  -27.3766   -1.8048   -6.8620 O   0  0  0  0  0  0  0  0  0  0  0  0
  -28.2116   -2.2328   -4.4727 C   0  0  0  0  0  0  0  0  0  0  0  0
  -28.1930   -1.7000   -7.3808 H   0  0  0  0  0  0  0  0  0  0  0  0
  -26.8093   -9.6805   -7.0376 N   0  0  0  0  0  0  0  0  0  0  0  0
  -26.3959   -9.2936   -7.8743 H   0  0  0  0  0  0  0  0  0  0  0  0
  -25.9313  -10.2335   -6.0962 C   0  0  0  0  0  0  0  0  0  0  0  0
  -26.3113  -10.5654   -4.7914 C   0  0  0  0  0  0  0  0  0  0  0  0
  -25.3930  -11.0058   -3.8267 C   0  0  0  0  0  0  0  0  0  0  0  0
  -24.0578  -11.1189   -4.2212 C   0  0  0  0  0  0  0  0  0  0  0  0
  -23.6398  -10.8426   -5.5161 C   0  0  0  0  0  0  0  0  0  0  0  0
  -24.5879  -10.4205   -6.4708 C   0  0  0  0  0  0  0  0  0  0  0  0
  -22.2474  -11.0912   -5.4941 C   0  0  0  0  0  0  0  0  0  0  0  0
  -21.1733  -10.9225   -6.7969 Cl  0  0  0  0  0  0  0  0  0  0  0  0
  -21.8009  -11.4688   -4.2934 N   0  0  0  0  0  0  0  0  0  0  0  0
  -22.9129  -11.4615   -3.5354 N   0  0  0  0  0  0  0  0  0  0  0  0
  -22.8165  -11.7613   -2.1276 C   0  0  0  0  0  0  0  0  0  0  0  0
  8  9  1  0  0  0
  9 10  2  0  0  0
  9 13  1  0  0  0
 10 11  1  0  0  0
 11  1  1  0  0  0
 11 12  1  0  0  0
  1  2  1  0  0  0
  1  6  2  0  0  0
  2  3  2  0  0  0
  3 21  1  0  0  0
  3  4  1  0  0  0
 21 23  1  0  0  0
 21 22  1  0  0  0
 23 24  1  0  0  0
 23 28  2  0  0  0
 24 25  2  0  0  0
 25 26  1  0  0  0
 26 27  2  0  0  0
 26 32  1  0  0  0
 27 28  1  0  0  0
 27 29  1  0  0  0
 29 30  1  0  0  0
 29 31  2  0  0  0
 31 32  1  0  0  0
 32 33  1  0  0  0
  4  5  2  0  0  0
  5  6  1  0  0  0
  6  7  1  0  0  0
 12 13  2  0  0  0
 13 14  1  0  0  0
 14 15  1  0  0  0
 15 16  1  0  0  0
 15 19  1  0  0  0
 16 17  1  0  0  0
 17 18  1  0  0  0
 17 19  1  0  0  0
 18 20  1  0  0  0
M  END
> <minimizedAffinity>
-8.93233

$$$$
