CHEMBL386051


 30 33  0  0  0  0  0  0  0  0999 V2000
  -14.5954   -0.5614  -13.5746 C   0  0  0  0  0  0  0  0  0  0  0  0
  -13.8694   -1.0340  -14.5938 N   0  0  0  0  0  0  0  0  0  0  0  0
  -13.4796   -2.3220  -14.5078 C   0  0  0  0  0  0  0  0  0  0  0  0
  -13.7938   -3.1550  -13.4545 C   0  0  0  0  0  0  0  0  0  0  0  0
  -13.3476   -4.5324  -13.3550 C   0  0  0  0  0  0  0  0  0  0  0  0
  -13.6697   -5.2553  -12.2707 C   0  0  0  0  0  0  0  0  0  0  0  0
  -14.4951   -4.6607  -11.1613 C   0  0  0  0  0  0  0  0  0  0  0  0
  -14.7350   -5.3318  -10.1591 O   0  0  0  0  0  0  0  0  0  0  0  0
  -14.9490   -3.3655  -11.3461 N   0  0  0  0  0  0  0  0  0  0  0  0
  -15.8182   -2.7453  -10.3588 C   0  0  0  0  0  0  0  0  0  0  0  0
  -14.5798   -2.5874  -12.4700 C   0  0  0  0  0  0  0  0  0  0  0  0
  -14.9843   -1.3126  -12.5317 N   0  0  0  0  0  0  0  0  0  0  0  0
  -13.2282   -6.6599  -12.1706 C   0  0  0  0  0  0  0  0  0  0  0  0
  -13.9786   -7.7009  -12.7461 C   0  0  0  0  0  0  0  0  0  0  0  0
  -15.4835   -7.4078  -13.5517 Cl  0  0  0  0  0  0  0  0  0  0  0  0
  -13.5294   -9.0250  -12.6874 C   0  0  0  0  0  0  0  0  0  0  0  0
  -12.3152   -9.3271  -12.0748 C   0  0  0  0  0  0  0  0  0  0  0  0
  -11.5642   -8.3100  -11.4901 C   0  0  0  0  0  0  0  0  0  0  0  0
  -12.0221   -6.9883  -11.5250 C   0  0  0  0  0  0  0  0  0  0  0  0
  -11.0559   -5.7921  -10.7269 Cl  0  0  0  0  0  0  0  0  0  0  0  0
  -14.9462    0.7895  -13.5984 N   0  0  0  0  0  0  0  0  0  0  0  0
  -14.8891    1.1889  -12.6707 H   0  0  0  0  0  0  0  0  0  0  0  0
  -18.2440    1.7178  -15.0018 C   0  0  0  0  0  0  0  0  0  0  0  0
  -17.8786    2.6455  -15.9813 C   0  0  0  0  0  0  0  0  0  0  0  0
  -16.5341    2.9100  -16.2222 C   0  0  0  0  0  0  0  0  0  0  0  0
  -15.5583    2.2704  -15.4600 C   0  0  0  0  0  0  0  0  0  0  0  0
  -15.9081    1.3626  -14.4484 C   0  0  0  0  0  0  0  0  0  0  0  0
  -17.2579    1.0491  -14.2671 C   0  0  0  0  0  0  0  0  0  0  0  0
  -20.6085    3.0257  -15.2726 C   0  0  0  0  0  0  0  0  0  0  0  0
  -19.9679    1.4525  -14.6349 S   0  0  0  0  0  0  0  0  0  0  0  0
 29 30  1  0  0  0
 30 23  1  0  0  0
 23 24  1  0  0  0
 23 28  2  0  0  0
 24 25  2  0  0  0
 25 26  1  0  0  0
 26 27  2  0  0  0
 27 21  1  0  0  0
 27 28  1  0  0  0
 21  1  1  0  0  0
 21 22  1  0  0  0
  1  2  1  0  0  0
  1 12  2  0  0  0
  2  3  2  0  0  0
  3  4  1  0  0  0
  4  5  1  0  0  0
  4 11  2  0  0  0
  5  6  2  0  0  0
  6 13  1  0  0  0
  6  7  1  0  0  0
 13 14  1  0  0  0
 13 19  2  0  0  0
 14 15  1  0  0  0
 14 16  2  0  0  0
 16 17  1  0  0  0
 17 18  2  0  0  0
 18 19  1  0  0  0
 19 20  1  0  0  0
  7  8  2  0  0  0
  7  9  1  0  0  0
  9 10  1  0  0  0
  9 11  1  0  0  0
 11 12  1  0  0  0
M  END
> <minimizedAffinity>
-8.54374

$$$$
