CHEMBL3660298


 38 41  0  0  0  0  0  0  0  0999 V2000
  -26.0289   -0.9254  -12.2459 C   0  0  0  0  0  0  0  0  0  0  0  0
  -25.9179   -1.4565  -13.5346 C   0  0  0  0  0  0  0  0  0  0  0  0
  -24.7104   -1.3862  -14.2276 C   0  0  0  0  0  0  0  0  0  0  0  0
  -23.6180   -0.7162  -13.6708 C   0  0  0  0  0  0  0  0  0  0  0  0
  -23.7305   -0.1727  -12.3868 C   0  0  0  0  0  0  0  0  0  0  0  0
  -24.9418   -0.2560  -11.6811 C   0  0  0  0  0  0  0  0  0  0  0  0
  -28.2920   -1.9693   -9.6130 N   0  0  0  0  0  0  0  0  0  0  0  0
  -27.0736   -1.7255  -10.2252 C   0  0  0  0  0  0  0  0  0  0  0  0
  -25.9820   -1.9177   -9.7181 O   0  0  0  0  0  0  0  0  0  0  0  0
  -27.2092   -1.1469  -11.4877 N   0  0  0  0  0  0  0  0  0  0  0  0
  -29.1135   -1.5989  -10.0656 H   0  0  0  0  0  0  0  0  0  0  0  0
  -27.9082   -0.4204  -11.5358 H   0  0  0  0  0  0  0  0  0  0  0  0
  -29.7576   -5.8020   -6.8500 C   0  0  0  0  0  0  0  0  0  0  0  0
  -29.2088   -4.4080   -6.9494 C   0  0  0  0  0  0  0  0  0  0  0  0
  -28.9521   -3.6789   -5.7841 C   0  0  0  0  0  0  0  0  0  0  0  0
  -28.4112   -2.4030   -5.8702 C   0  0  0  0  0  0  0  0  0  0  0  0
  -28.1424   -1.8401   -7.1153 C   0  0  0  0  0  0  0  0  0  0  0  0
  -27.4931   -0.6698   -7.0986 F   0  0  0  0  0  0  0  0  0  0  0  0
  -28.4499   -2.5141   -8.3082 C   0  0  0  0  0  0  0  0  0  0  0  0
  -28.9546   -3.8215   -8.2064 C   0  0  0  0  0  0  0  0  0  0  0  0
  -22.3950   -0.5937  -14.3076 O   0  0  0  0  0  0  0  0  0  0  0  0
  -21.8065    0.6568  -14.3807 C   0  0  0  0  0  0  0  0  0  0  0  0
  -22.4775    1.8221  -14.0136 C   0  0  0  0  0  0  0  0  0  0  0  0
  -21.8427    3.0264  -14.2107 C   0  0  0  0  0  0  0  0  0  0  0  0
  -20.5786    3.1308  -14.6517 N   0  0  0  0  0  0  0  0  0  0  0  0
  -19.8908    1.9870  -14.9128 C   0  0  0  0  0  0  0  0  0  0  0  0
  -20.4759    0.7283  -14.8040 C   0  0  0  0  0  0  0  0  0  0  0  0
  -18.4982    2.2296  -15.2727 C   0  0  0  0  0  0  0  0  0  0  0  0
  -17.8964    3.4409  -15.5493 C   0  0  0  0  0  0  0  0  0  0  0  0
  -16.5890    3.1959  -15.8854 N   0  0  0  0  0  0  0  0  0  0  0  0
  -16.3223    1.8382  -15.9015 C   0  0  0  0  0  0  0  0  0  0  0  0
  -17.4781    1.2381  -15.4386 C   0  0  0  0  0  0  0  0  0  0  0  0
  -15.8931    3.8949  -16.1152 H   0  0  0  0  0  0  0  0  0  0  0  0
  -15.0037    1.3488  -16.2692 C   0  0  0  0  0  0  0  0  0  0  0  0
  -14.8114    1.0098  -17.4394 O   0  0  0  0  0  0  0  0  0  0  0  0
  -13.9806    1.2210  -15.3214 N   0  0  0  0  0  0  0  0  0  0  0  0
  -14.0923    1.3710  -13.8774 C   0  0  0  0  0  0  0  0  0  0  0  0
  -12.6788    0.7535  -15.7771 C   0  0  0  0  0  0  0  0  0  0  0  0
 13 14  1  0  0  0
 14 15  1  0  0  0
 14 20  2  0  0  0
 15 16  2  0  0  0
 16 17  1  0  0  0
 17 18  1  0  0  0
 17 19  2  0  0  0
 19  7  1  0  0  0
 19 20  1  0  0  0
  7  8  1  0  0  0
  7 11  1  0  0  0
  8  9  2  0  0  0
  8 10  1  0  0  0
 10  1  1  0  0  0
 10 12  1  0  0  0
  1  2  1  0  0  0
  1  6  2  0  0  0
  2  3  2  0  0  0
  3  4  1  0  0  0
  4 21  1  0  0  0
  4  5  2  0  0  0
 21 22  1  0  0  0
 22 23  1  0  0  0
 22 27  2  0  0  0
 23 24  2  0  0  0
 24 25  1  0  0  0
 25 26  2  0  0  0
 26 28  1  0  0  0
 26 27  1  0  0  0
 28 29  2  0  0  0
 28 32  1  0  0  0
 29 30  1  0  0  0
 30 31  1  0  0  0
 30 33  1  0  0  0
 31 34  1  0  0  0
 31 32  2  0  0  0
 34 35  2  0  0  0
 34 36  1  0  0  0
 36 37  1  0  0  0
 36 38  1  0  0  0
  5  6  1  0  0  0
M  END
> <minimizedAffinity>
-11.72315

$$$$
