CHEMBL383334


 31 34  0  0  0  0  0  0  0  0999 V2000
  -26.4668   -1.8005  -10.4869 C   0  0  0  0  0  0  0  0  0  0  0  0
  -27.6120   -1.3099  -10.9121 N   0  0  0  0  0  0  0  0  0  0  0  0
  -28.4653   -1.2839   -9.8278 N   0  0  0  0  0  0  0  0  0  0  0  0
  -27.7779   -1.7220   -8.7929 C   0  0  0  0  0  0  0  0  0  0  0  0
  -26.4966   -2.0765   -9.1467 O   0  0  0  0  0  0  0  0  0  0  0  0
  -28.1367   -1.8478   -7.3797 C   0  0  0  0  0  0  0  0  0  0  0  0
  -27.7008   -0.8589   -6.4719 C   0  0  0  0  0  0  0  0  0  0  0  0
  -28.0366   -0.9157   -5.1224 C   0  0  0  0  0  0  0  0  0  0  0  0
  -28.8001   -1.9765   -4.6960 C   0  0  0  0  0  0  0  0  0  0  0  0
  -29.2283   -2.9525   -5.5191 N   0  0  0  0  0  0  0  0  0  0  0  0
  -28.9222   -2.8894   -6.8506 C   0  0  0  0  0  0  0  0  0  0  0  0
  -29.4467   -4.0662   -7.6617 C   0  0  0  0  0  0  0  0  0  0  0  0
  -28.6319   -5.3523   -7.4184 C   0  0  0  0  0  0  0  0  0  0  0  0
  -29.3474   -6.6523   -7.7064 C   0  0  0  0  0  0  0  0  0  0  0  0
  -28.6681   -7.7057   -8.3285 C   0  0  0  0  0  0  0  0  0  0  0  0
  -29.3108   -8.9266   -8.4753 C   0  0  0  0  0  0  0  0  0  0  0  0
  -30.5703   -9.1671   -8.0576 N   0  0  0  0  0  0  0  0  0  0  0  0
  -31.2133   -8.1375   -7.4664 C   0  0  0  0  0  0  0  0  0  0  0  0
  -30.6559   -6.8834   -7.2718 C   0  0  0  0  0  0  0  0  0  0  0  0
  -25.3266   -1.9583  -11.1884 N   0  0  0  0  0  0  0  0  0  0  0  0
  -24.5356   -2.2656  -10.6342 H   0  0  0  0  0  0  0  0  0  0  0  0
  -23.3238   -0.2215  -13.8080 C   0  0  0  0  0  0  0  0  0  0  0  0
  -24.0765   -0.4855  -14.9565 C   0  0  0  0  0  0  0  0  0  0  0  0
  -25.2439   -1.2389  -14.8688 C   0  0  0  0  0  0  0  0  0  0  0  0
  -25.6737   -1.7330  -13.6332 C   0  0  0  0  0  0  0  0  0  0  0  0
  -24.9656   -1.4641  -12.4569 C   0  0  0  0  0  0  0  0  0  0  0  0
  -23.7796   -0.7120  -12.5686 C   0  0  0  0  0  0  0  0  0  0  0  0
  -22.2102    1.8681  -14.2372 F   0  0  0  0  0  0  0  0  0  0  0  0
  -22.0363    0.5625  -13.8857 C   0  0  0  0  0  0  0  0  0  0  0  0
  -21.1688    0.0443  -14.7994 F   0  0  0  0  0  0  0  0  0  0  0  0
  -21.3640    0.5809  -12.7013 F   0  0  0  0  0  0  0  0  0  0  0  0
 28 29  1  0  0  0
 29 30  1  0  0  0
 29 31  1  0  0  0
 29 22  1  0  0  0
 22 23  1  0  0  0
 22 27  2  0  0  0
 23 24  2  0  0  0
 24 25  1  0  0  0
 25 26  2  0  0  0
 26 20  1  0  0  0
 26 27  1  0  0  0
 20  1  1  0  0  0
 20 21  1  0  0  0
  1  2  2  0  0  0
  1  5  1  0  0  0
  2  3  1  0  0  0
  3  4  2  0  0  0
  4  6  1  0  0  0
  4  5  1  0  0  0
  6  7  1  0  0  0
  6 11  2  0  0  0
  7  8  2  0  0  0
  8  9  1  0  0  0
  9 10  2  0  0  0
 10 11  1  0  0  0
 11 12  1  0  0  0
 12 13  1  0  0  0
 13 14  1  0  0  0
 14 15  1  0  0  0
 14 19  2  0  0  0
 15 16  2  0  0  0
 16 17  1  0  0  0
 17 18  2  0  0  0
 18 19  1  0  0  0
M  END
> <minimizedAffinity>
-10.06213

$$$$
