CHEMBL270793


 43 46  0  0  0  0  0  0  0  0999 V2000
  -23.0322    1.3621  -13.7906 C   0  0  0  0  0  0  0  0  0  0  0  0
  -23.8079    2.1871  -13.2951 O   0  0  0  0  0  0  0  0  0  0  0  0
  -23.3063    0.0187  -13.9445 N   0  0  0  0  0  0  0  0  0  0  0  0
  -22.5430   -0.5785  -14.2485 H   0  0  0  0  0  0  0  0  0  0  0  0
  -24.5078   -0.6223  -13.5459 C   0  0  0  0  0  0  0  0  0  0  0  0
  -24.8522   -0.7354  -12.1886 C   0  0  0  0  0  0  0  0  0  0  0  0
  -25.9890   -1.4360  -11.7910 C   0  0  0  0  0  0  0  0  0  0  0  0
  -26.8226   -1.9923  -12.7654 C   0  0  0  0  0  0  0  0  0  0  0  0
  -26.5200   -1.8497  -14.1186 C   0  0  0  0  0  0  0  0  0  0  0  0
  -25.3670   -1.1594  -14.5270 C   0  0  0  0  0  0  0  0  0  0  0  0
  -25.0933   -1.0314  -16.0010 C   0  0  0  0  0  0  0  0  0  0  0  0
  -26.3941   -1.5759  -10.3672 C   0  0  0  0  0  0  0  0  0  0  0  0
  -25.6631   -1.0331   -9.5404 O   0  0  0  0  0  0  0  0  0  0  0  0
  -27.5421   -2.3069  -10.0833 N   0  0  0  0  0  0  0  0  0  0  0  0
  -28.0002   -2.8097  -10.8345 H   0  0  0  0  0  0  0  0  0  0  0  0
  -28.0695   -2.4946   -8.7799 C   0  0  0  0  0  0  0  0  0  0  0  0
  -28.7910   -3.6392   -8.4254 C   0  0  0  0  0  0  0  0  0  0  0  0
  -29.3718   -3.7672   -7.1667 C   0  0  0  0  0  0  0  0  0  0  0  0
  -29.2419   -2.7440   -6.2377 C   0  0  0  0  0  0  0  0  0  0  0  0
  -28.5006   -1.5948   -6.5507 C   0  0  0  0  0  0  0  0  0  0  0  0
  -27.8857   -1.4928   -7.8175 C   0  0  0  0  0  0  0  0  0  0  0  0
  -28.4063   -0.4648   -5.5558 C   0  0  0  0  0  0  0  0  0  0  0  0
  -29.0319    0.6755   -5.9674 F   0  0  0  0  0  0  0  0  0  0  0  0
  -28.9567   -0.7753   -4.3507 F   0  0  0  0  0  0  0  0  0  0  0  0
  -27.1181   -0.1046   -5.2994 F   0  0  0  0  0  0  0  0  0  0  0  0
  -20.6510    1.1607  -14.7377 C   0  0  0  0  0  0  0  0  0  0  0  0
  -19.4915    1.7417  -15.1288 N   0  0  0  0  0  0  0  0  0  0  0  0
  -19.3738    3.0646  -14.9644 C   0  0  0  0  0  0  0  0  0  0  0  0
  -20.3177    3.8213  -14.4063 N   0  0  0  0  0  0  0  0  0  0  0  0
  -21.4680    3.2088  -14.0582 C   0  0  0  0  0  0  0  0  0  0  0  0
  -21.7163    1.8636  -14.2178 C   0  0  0  0  0  0  0  0  0  0  0  0
  -19.6505   -0.7655  -15.6041 C   0  0  0  0  0  0  0  0  0  0  0  0
  -20.7673   -0.2097  -14.9019 O   0  0  0  0  0  0  0  0  0  0  0  0
  -18.2247    3.6528  -15.4475 N   0  0  0  0  0  0  0  0  0  0  0  0
  -18.4764    4.2883  -16.1948 H   0  0  0  0  0  0  0  0  0  0  0  0
  -17.0636    2.7831  -15.6683 C   0  0  0  0  0  0  0  0  0  0  0  0
  -15.8703    3.6945  -16.0394 C   0  0  0  0  0  0  0  0  0  0  0  0
  -14.7868    3.2178  -16.9183 N   0  0  0  0  0  0  0  0  0  0  0  0
  -14.5983    1.7531  -17.0221 C   0  0  0  0  0  0  0  0  0  0  0  0
  -13.8547    1.0592  -15.8575 C   0  0  0  0  0  0  0  0  0  0  0  0
  -12.6525    1.7448  -15.4845 O   0  0  0  0  0  0  0  0  0  0  0  0
  -12.9326    3.1173  -15.2014 C   0  0  0  0  0  0  0  0  0  0  0  0
  -13.5021    3.8076  -16.4529 C   0  0  0  0  0  0  0  0  0  0  0  0
 32 33  1  0  0  0
 33 26  1  0  0  0
 26 27  1  0  0  0
 26 31  2  0  0  0
 27 28  2  0  0  0
 28 34  1  0  0  0
 28 29  1  0  0  0
 34 36  1  0  0  0
 34 35  1  0  0  0
 36 37  1  0  0  0
 37 38  1  0  0  0
 38 39  1  0  0  0
 38 43  1  0  0  0
 39 40  1  0  0  0
 40 41  1  0  0  0
 41 42  1  0  0  0
 42 43  1  0  0  0
 29 30  2  0  0  0
 30 31  1  0  0  0
 31  1  1  0  0  0
  1  2  2  0  0  0
  1  3  1  0  0  0
  3  5  1  0  0  0
  3  4  1  0  0  0
  5  6  1  0  0  0
  5 10  2  0  0  0
  6  7  2  0  0  0
  7 12  1  0  0  0
  7  8  1  0  0  0
 12 13  2  0  0  0
 12 14  1  0  0  0
 14 16  1  0  0  0
 14 15  1  0  0  0
 16 17  1  0  0  0
 16 21  2  0  0  0
 17 18  2  0  0  0
 18 19  1  0  0  0
 19 20  2  0  0  0
 20 22  1  0  0  0
 20 21  1  0  0  0
 22 23  1  0  0  0
 22 24  1  0  0  0
 22 25  1  0  0  0
  8  9  2  0  0  0
  9 10  1  0  0  0
 10 11  1  0  0  0
M  END
> <minimizedAffinity>
-9.08550

$$$$
