CHEMBL599446


 28 31  0  0  0  0  0  0  0  0999 V2000
  -28.0024   -8.8521   -9.3922 O   0  0  0  0  0  0  0  0  0  0  0  0
  -28.3423   -8.6886   -8.2211 C   0  0  0  0  0  0  0  0  0  0  0  0
  -29.7104   -8.1600   -7.8590 C   0  0  0  0  0  0  0  0  0  0  0  0
  -29.5882   -6.9034   -7.0684 C   0  0  0  0  0  0  0  0  0  0  0  0
  -29.9126   -5.6711   -7.5884 C   0  0  0  0  0  0  0  0  0  0  0  0
  -29.7330   -4.5145   -6.9261 N   0  0  0  0  0  0  0  0  0  0  0  0
  -29.2568   -4.6061   -5.6773 C   0  0  0  0  0  0  0  0  0  0  0  0
  -28.9399   -5.7714   -5.0806 N   0  0  0  0  0  0  0  0  0  0  0  0
  -29.0674   -6.9080   -5.7953 C   0  0  0  0  0  0  0  0  0  0  0  0
  -28.5735   -8.1444   -5.1600 C   0  0  0  0  0  0  0  0  0  0  0  0
  -28.8245   -8.4063   -3.8133 C   0  0  0  0  0  0  0  0  0  0  0  0
  -28.4203   -9.5188   -3.1461 N   0  0  0  0  0  0  0  0  0  0  0  0
  -27.6646  -10.3990   -3.8272 C   0  0  0  0  0  0  0  0  0  0  0  0
  -27.2977  -10.2226   -5.1458 C   0  0  0  0  0  0  0  0  0  0  0  0
  -27.8009   -9.1147   -5.8328 C   0  0  0  0  0  0  0  0  0  0  0  0
  -27.5019   -9.0749   -7.2104 N   0  0  0  0  0  0  0  0  0  0  0  0
  -26.7019   -9.5981   -7.5498 H   0  0  0  0  0  0  0  0  0  0  0  0
  -29.0349   -3.4000   -5.0186 N   0  0  0  0  0  0  0  0  0  0  0  0
  -28.7276   -3.5523   -4.0718 H   0  0  0  0  0  0  0  0  0  0  0  0
  -28.8970   -2.1125   -5.5486 C   0  0  0  0  0  0  0  0  0  0  0  0
  -27.7617   -1.7906   -6.3015 C   0  0  0  0  0  0  0  0  0  0  0  0
  -27.5420   -0.4859   -6.7521 C   0  0  0  0  0  0  0  0  0  0  0  0
  -28.4716    0.5119   -6.4559 C   0  0  0  0  0  0  0  0  0  0  0  0
  -28.2510    1.7961   -6.8689 O   0  0  0  0  0  0  0  0  0  0  0  0
  -29.6217    0.2023   -5.7308 C   0  0  0  0  0  0  0  0  0  0  0  0
  -30.8102    1.3962   -5.3574 Cl  0  0  0  0  0  0  0  0  0  0  0  0
  -29.8237   -1.0993   -5.2757 C   0  0  0  0  0  0  0  0  0  0  0  0
  -27.3472    1.8708   -7.2135 H   0  0  0  0  0  0  0  0  0  0  0  0
  1  2  2  0  0  0
  2  3  1  0  0  0
  2 16  1  0  0  0
  3  4  1  0  0  0
  4  5  1  0  0  0
  4  9  2  0  0  0
  5  6  2  0  0  0
  6  7  1  0  0  0
  7 18  1  0  0  0
  7  8  2  0  0  0
 18 20  1  0  0  0
 18 19  1  0  0  0
 20 21  1  0  0  0
 20 27  2  0  0  0
 21 22  2  0  0  0
 22 23  1  0  0  0
 23 24  1  0  0  0
 23 25  2  0  0  0
 24 28  1  0  0  0
 25 26  1  0  0  0
 25 27  1  0  0  0
  8  9  1  0  0  0
  9 10  1  0  0  0
 10 11  1  0  0  0
 10 15  2  0  0  0
 11 12  2  0  0  0
 12 13  1  0  0  0
 13 14  2  0  0  0
 14 15  1  0  0  0
 15 16  1  0  0  0
 16 17  1  0  0  0
M  END
> <minimizedAffinity>
-8.82839

$$$$
