CHEMBL171125


 33 37  0  0  0  0  0  0  0  0999 V2000
  -28.0655   -3.6094   -7.9099 C   0  0  0  0  0  0  0  0  0  0  0  0
  -28.3080   -3.3888   -6.5588 C   0  0  0  0  0  0  0  0  0  0  0  0
  -28.2312   -2.0929   -6.0019 C   0  0  0  0  0  0  0  0  0  0  0  0
  -28.2980   -1.8314   -4.6291 C   0  0  0  0  0  0  0  0  0  0  0  0
  -28.2267   -0.5772   -4.1499 N   0  0  0  0  0  0  0  0  0  0  0  0
  -28.0680    0.4060   -5.0393 C   0  0  0  0  0  0  0  0  0  0  0  0
  -27.9435    0.2619   -6.3607 N   0  0  0  0  0  0  0  0  0  0  0  0
  -28.0055   -0.9912   -6.8299 C   0  0  0  0  0  0  0  0  0  0  0  0
  -27.8391   -1.2090   -8.1854 C   0  0  0  0  0  0  0  0  0  0  0  0
  -27.8798   -2.4990   -8.7402 C   0  0  0  0  0  0  0  0  0  0  0  0
  -28.6723   -5.9310   -7.7789 C   0  0  0  0  0  0  0  0  0  0  0  0
  -28.0166   -4.8606   -8.4522 O   0  0  0  0  0  0  0  0  0  0  0  0
  -28.3527   -2.9120   -3.7098 N   0  0  0  0  0  0  0  0  0  0  0  0
  -27.4481   -3.3647   -3.6153 H   0  0  0  0  0  0  0  0  0  0  0  0
  -29.4102   -3.8380   -3.6399 C   0  0  0  0  0  0  0  0  0  0  0  0
  -30.7194   -3.4339   -3.3294 C   0  0  0  0  0  0  0  0  0  0  0  0
  -31.7918   -4.3402   -3.3587 C   0  0  0  0  0  0  0  0  0  0  0  0
  -31.5693   -5.6760   -3.6876 C   0  0  0  0  0  0  0  0  0  0  0  0
  -30.2714   -6.0694   -3.9385 C   0  0  0  0  0  0  0  0  0  0  0  0
  -29.2177   -5.1838   -3.9018 C   0  0  0  0  0  0  0  0  0  0  0  0
  -28.0274   -5.7849   -4.1880 O   0  0  0  0  0  0  0  0  0  0  0  0
  -28.4585   -7.1447   -4.4085 C   0  0  0  0  0  0  0  0  0  0  0  0
  -29.8814   -7.3290   -4.2709 O   0  0  0  0  0  0  0  0  0  0  0  0
  -27.7100   -2.5082  -10.1011 O   0  0  0  0  0  0  0  0  0  0  0  0
  -27.8456   -1.2664  -10.7944 C   0  0  0  0  0  0  0  0  0  0  0  0
  -26.8786   -1.0908  -11.9704 C   0  0  0  0  0  0  0  0  0  0  0  0
  -25.4320   -0.9397  -11.4850 C   0  0  0  0  0  0  0  0  0  0  0  0
  -24.4909   -1.8853  -12.1143 N   0  0  0  0  0  0  0  0  0  0  0  0
  -23.0747   -1.6532  -11.7575 C   0  0  0  0  0  0  0  0  0  0  0  0
  -22.5077   -0.3518  -12.3426 C   0  0  0  0  0  0  0  0  0  0  0  0
  -22.6060   -0.3510  -13.7723 O   0  0  0  0  0  0  0  0  0  0  0  0
  -23.9634   -0.5352  -14.1964 C   0  0  0  0  0  0  0  0  0  0  0  0
  -24.5916   -1.8079  -13.5930 C   0  0  0  0  0  0  0  0  0  0  0  0
 11 12  1  0  0  0
 12  1  1  0  0  0
  1  2  1  0  0  0
  1 10  2  0  0  0
  2  3  2  0  0  0
  3  4  1  0  0  0
  3  8  1  0  0  0
  4 13  1  0  0  0
  4  5  2  0  0  0
 13 15  1  0  0  0
 13 14  1  0  0  0
 15 16  1  0  0  0
 15 20  2  0  0  0
 16 17  2  0  0  0
 17 18  1  0  0  0
 18 19  2  0  0  0
 19 20  1  0  0  0
 19 23  1  0  0  0
 20 21  1  0  0  0
 21 22  1  0  0  0
 22 23  1  0  0  0
  5  6  1  0  0  0
  6  7  2  0  0  0
  7  8  1  0  0  0
  8  9  2  0  0  0
  9 10  1  0  0  0
 10 24  1  0  0  0
 24 25  1  0  0  0
 25 26  1  0  0  0
 26 27  1  0  0  0
 27 28  1  0  0  0
 28 29  1  0  0  0
 28 33  1  0  0  0
 29 30  1  0  0  0
 30 31  1  0  0  0
 31 32  1  0  0  0
 32 33  1  0  0  0
M  END
> <minimizedAffinity>
-9.00131

$$$$
