CHEMBL3657551


 38 42  0  0  0  0  0  0  0  0999 V2000
  -30.0825   -3.7737   -4.7362 C   0  0  0  0  0  0  0  0  0  0  0  0
  -30.8936   -3.4350   -3.6535 C   0  0  0  0  0  0  0  0  0  0  0  0
  -31.7614   -4.3940   -3.1561 C   0  0  0  0  0  0  0  0  0  0  0  0
  -31.7611   -5.6608   -3.7273 C   0  0  0  0  0  0  0  0  0  0  0  0
  -30.8875   -5.9598   -4.7802 C   0  0  0  0  0  0  0  0  0  0  0  0
  -30.0823   -5.0144   -5.3131 N   0  0  0  0  0  0  0  0  0  0  0  0
  -28.1160    0.6277   -5.3869 C   0  0  0  0  0  0  0  0  0  0  0  0
  -28.4516   -0.7955   -5.6534 C   0  0  0  0  0  0  0  0  0  0  0  0
  -29.1840   -1.4948   -4.7709 N   0  0  0  0  0  0  0  0  0  0  0  0
  -29.2559   -2.7533   -5.2978 N   0  0  0  0  0  0  0  0  0  0  0  0
  -28.5187   -2.8452   -6.4575 C   0  0  0  0  0  0  0  0  0  0  0  0
  -28.1082   -1.5719   -6.7899 C   0  0  0  0  0  0  0  0  0  0  0  0
  -27.5174   -1.1133   -8.0920 C   0  0  0  0  0  0  0  0  0  0  0  0
  -28.0854   -1.8275   -9.2363 N   0  0  0  0  0  0  0  0  0  0  0  0
  -28.3381   -0.9340  -10.3843 C   0  0  0  0  0  0  0  0  0  0  0  0
  -27.2921   -1.2055  -11.4626 C   0  0  0  0  0  0  0  0  0  0  0  0
  -26.3427   -2.2202  -10.8619 C   0  0  0  0  0  0  0  0  0  0  0  0
  -25.1765   -1.5383  -10.4007 O   0  0  0  0  0  0  0  0  0  0  0  0
  -27.1545   -2.8601   -9.7362 C   0  0  0  0  0  0  0  0  0  0  0  0
  -24.9729   -1.8368   -9.5001 H   0  0  0  0  0  0  0  0  0  0  0  0
  -30.9103   -7.3125   -5.2305 N   0  0  0  0  0  0  0  0  0  0  0  0
  -30.9166   -7.8960   -4.3968 H   0  0  0  0  0  0  0  0  0  0  0  0
  -30.0914   -7.9312   -6.2050 C   0  0  0  0  0  0  0  0  0  0  0  0
  -30.1457   -7.6448   -7.5670 C   0  0  0  0  0  0  0  0  0  0  0  0
  -29.2699   -8.2549   -8.4864 C   0  0  0  0  0  0  0  0  0  0  0  0
  -28.2586   -9.0889   -7.9798 C   0  0  0  0  0  0  0  0  0  0  0  0
  -28.1872   -9.3979   -6.6218 C   0  0  0  0  0  0  0  0  0  0  0  0
  -29.1833   -8.9045   -5.7590 C   0  0  0  0  0  0  0  0  0  0  0  0
  -26.9593  -10.0906   -6.3851 C   0  0  0  0  0  0  0  0  0  0  0  0
  -26.3746  -10.2804   -7.6226 C   0  0  0  0  0  0  0  0  0  0  0  0
  -27.1907   -9.7234   -8.5791 N   0  0  0  0  0  0  0  0  0  0  0  0
  -26.9016   -9.7328   -9.9970 C   0  0  0  0  0  0  0  0  0  0  0  0
  -26.4113  -10.4203   -5.0660 C   0  0  0  0  0  0  0  0  0  0  0  0
  -26.7521  -11.4666   -4.5020 O   0  0  0  0  0  0  0  0  0  0  0  0
  -25.5133   -9.4026   -4.3634 C   0  0  0  0  0  0  0  0  0  0  0  0
  -25.1561   -9.7301   -3.0889 F   0  0  0  0  0  0  0  0  0  0  0  0
  -24.3384   -9.2163   -5.0359 F   0  0  0  0  0  0  0  0  0  0  0  0
  -26.0959   -8.1724   -4.2823 F   0  0  0  0  0  0  0  0  0  0  0  0
  7  8  1  0  0  0
  8  9  2  0  0  0
  8 12  1  0  0  0
  9 10  1  0  0  0
 10  1  1  0  0  0
 10 11  1  0  0  0
  1  2  1  0  0  0
  1  6  2  0  0  0
  2  3  2  0  0  0
  3  4  1  0  0  0
  4  5  2  0  0  0
  5 21  1  0  0  0
  5  6  1  0  0  0
 21 23  1  0  0  0
 21 22  1  0  0  0
 23 24  1  0  0  0
 23 28  2  0  0  0
 24 25  2  0  0  0
 25 26  1  0  0  0
 26 27  2  0  0  0
 26 31  1  0  0  0
 27 28  1  0  0  0
 27 29  1  0  0  0
 29 33  1  0  0  0
 29 30  2  0  0  0
 33 34  2  0  0  0
 33 35  1  0  0  0
 35 36  1  0  0  0
 35 37  1  0  0  0
 35 38  1  0  0  0
 30 31  1  0  0  0
 31 32  1  0  0  0
 11 12  2  0  0  0
 12 13  1  0  0  0
 13 14  1  0  0  0
 14 15  1  0  0  0
 14 19  1  0  0  0
 15 16  1  0  0  0
 16 17  1  0  0  0
 17 18  1  0  0  0
 17 19  1  0  0  0
 18 20  1  0  0  0
M  END
> <minimizedAffinity>
-9.17321

$$$$
