CHEMBL3589807


 33 36  0  0  0  0  0  0  0  0999 V2000
  -18.9302    1.7315  -15.4650 C   0  0  0  0  0  0  0  0  0  0  0  0
  -18.9062    3.1141  -15.6202 C   0  0  0  0  0  0  0  0  0  0  0  0
  -17.7049    3.7782  -15.6890 C   0  0  0  0  0  0  0  0  0  0  0  0
  -16.4981    3.1273  -15.4072 C   0  0  0  0  0  0  0  0  0  0  0  0
  -16.5092    1.7415  -15.2759 C   0  0  0  0  0  0  0  0  0  0  0  0
  -17.7295    1.0362  -15.3031 C   0  0  0  0  0  0  0  0  0  0  0  0
  -15.3345    3.9203  -15.2752 N   0  0  0  0  0  0  0  0  0  0  0  0
  -14.4870    3.7617  -16.2573 C   0  0  0  0  0  0  0  0  0  0  0  0
  -14.8466    3.5257  -17.7501 C   0  0  0  0  0  0  0  0  0  0  0  0
  -15.6983    4.1137  -18.3828 O   0  0  0  0  0  0  0  0  0  0  0  0
  -14.0513    2.4767  -18.1604 N   0  0  0  0  0  0  0  0  0  0  0  0
  -13.2416    2.0466  -17.1118 C   0  0  0  0  0  0  0  0  0  0  0  0
  -12.7041    0.7810  -16.9759 C   0  0  0  0  0  0  0  0  0  0  0  0
  -12.1716    0.4442  -15.7243 C   0  0  0  0  0  0  0  0  0  0  0  0
  -12.1381    1.3847  -14.6793 C   0  0  0  0  0  0  0  0  0  0  0  0
  -11.6432    1.0118  -13.4912 F   0  0  0  0  0  0  0  0  0  0  0  0
  -12.7009    2.6500  -14.8142 C   0  0  0  0  0  0  0  0  0  0  0  0
  -13.2758    2.9446  -16.0362 C   0  0  0  0  0  0  0  0  0  0  0  0
  -14.2007    2.0002  -19.0371 H   0  0  0  0  0  0  0  0  0  0  0  0
  -21.9455   -0.0019  -14.5179 N   0  0  0  0  0  0  0  0  0  0  0  0
  -20.8874    0.8671  -14.3855 C   0  0  0  0  0  0  0  0  0  0  0  0
  -20.5656    1.4196  -13.3351 O   0  0  0  0  0  0  0  0  0  0  0  0
  -20.1790    1.0728  -15.5608 N   0  0  0  0  0  0  0  0  0  0  0  0
  -22.0688   -0.4547  -15.4099 H   0  0  0  0  0  0  0  0  0  0  0  0
  -20.7323    1.2366  -16.3877 H   0  0  0  0  0  0  0  0  0  0  0  0
  -24.6464   -1.1411  -11.4579 C   0  0  0  0  0  0  0  0  0  0  0  0
  -24.6344    0.1692  -11.9101 C   0  0  0  0  0  0  0  0  0  0  0  0
  -23.7341    0.5552  -12.8992 C   0  0  0  0  0  0  0  0  0  0  0  0
  -22.8264   -0.3490  -13.4653 C   0  0  0  0  0  0  0  0  0  0  0  0
  -22.8091   -1.6552  -12.9779 C   0  0  0  0  0  0  0  0  0  0  0  0
  -23.7195   -2.0460  -11.9837 C   0  0  0  0  0  0  0  0  0  0  0  0
  -26.8835   -1.6626  -10.8850 C   0  0  0  0  0  0  0  0  0  0  0  0
  -25.5057   -1.6381  -10.5186 O   0  0  0  0  0  0  0  0  0  0  0  0
 32 33  1  0  0  0
 33 26  1  0  0  0
 26 27  1  0  0  0
 26 31  2  0  0  0
 27 28  2  0  0  0
 28 29  1  0  0  0
 29 20  1  0  0  0
 29 30  2  0  0  0
 20 21  1  0  0  0
 20 24  1  0  0  0
 21 22  2  0  0  0
 21 23  1  0  0  0
 23  1  1  0  0  0
 23 25  1  0  0  0
  1  2  1  0  0  0
  1  6  2  0  0  0
  2  3  2  0  0  0
  3  4  1  0  0  0
  4  7  1  0  0  0
  4  5  2  0  0  0
  7  8  2  0  0  0
  8  9  1  0  0  0
  8 18  1  0  0  0
  9 10  2  0  0  0
  9 11  1  0  0  0
 11 12  1  0  0  0
 11 19  1  0  0  0
 12 13  1  0  0  0
 12 18  2  0  0  0
 13 14  2  0  0  0
 14 15  1  0  0  0
 15 16  1  0  0  0
 15 17  2  0  0  0
 17 18  1  0  0  0
  5  6  1  0  0  0
 30 31  1  0  0  0
M  END
> <minimizedAffinity>
-8.44627

$$$$
