CHEMBL380700


 24 26  0  0  0  0  0  0  0  0999 V2000
  -26.2044   -1.5886  -12.2550 C   0  0  0  0  0  0  0  0  0  0  0  0
  -27.5153   -2.0644  -13.2621 S   0  0  0  0  0  0  0  0  0  0  0  0
  -26.5799   -1.7012  -14.6453 C   0  0  0  0  0  0  0  0  0  0  0  0
  -25.3739   -1.2360  -14.4195 N   0  0  0  0  0  0  0  0  0  0  0  0
  -25.1417   -1.1559  -13.0499 C   0  0  0  0  0  0  0  0  0  0  0  0
  -27.5126   -1.9739  -10.2616 N   0  0  0  0  0  0  0  0  0  0  0  0
  -26.2663   -1.6696  -10.7961 C   0  0  0  0  0  0  0  0  0  0  0  0
  -25.2629   -1.4843  -10.1150 O   0  0  0  0  0  0  0  0  0  0  0  0
  -28.2646   -2.0995  -10.9269 H   0  0  0  0  0  0  0  0  0  0  0  0
  -27.9063    0.0424   -5.7676 C   0  0  0  0  0  0  0  0  0  0  0  0
  -28.0388   -1.1468   -6.6740 C   0  0  0  0  0  0  0  0  0  0  0  0
  -28.4867   -2.3690   -6.1659 C   0  0  0  0  0  0  0  0  0  0  0  0
  -28.6095   -3.4704   -7.0051 C   0  0  0  0  0  0  0  0  0  0  0  0
  -28.2885   -3.3628   -8.3598 C   0  0  0  0  0  0  0  0  0  0  0  0
  -27.8419   -2.1531   -8.8962 C   0  0  0  0  0  0  0  0  0  0  0  0
  -27.7183   -1.0467   -8.0403 C   0  0  0  0  0  0  0  0  0  0  0  0
  -23.7841   -0.6990  -12.5784 C   0  0  0  0  0  0  0  0  0  0  0  0
  -22.6814   -0.7649  -13.6410 C   0  0  0  0  0  0  0  0  0  0  0  0
  -22.1573    0.6104  -13.9893 C   0  0  0  0  0  0  0  0  0  0  0  0
  -22.8861    1.7541  -13.6525 C   0  0  0  0  0  0  0  0  0  0  0  0
  -22.3780    2.9965  -14.0058 C   0  0  0  0  0  0  0  0  0  0  0  0
  -21.2134    3.1755  -14.6649 N   0  0  0  0  0  0  0  0  0  0  0  0
  -20.5288    2.0578  -14.9882 C   0  0  0  0  0  0  0  0  0  0  0  0
  -20.9533    0.7725  -14.6800 C   0  0  0  0  0  0  0  0  0  0  0  0
 10 11  1  0  0  0
 11 12  1  0  0  0
 11 16  2  0  0  0
 12 13  2  0  0  0
 13 14  1  0  0  0
 14 15  2  0  0  0
 15  6  1  0  0  0
 15 16  1  0  0  0
  6  7  1  0  0  0
  6  9  1  0  0  0
  7  8  2  0  0  0
  7  1  1  0  0  0
  1  2  1  0  0  0
  1  5  2  0  0  0
  2  3  1  0  0  0
  3  4  2  0  0  0
  4  5  1  0  0  0
  5 17  1  0  0  0
 17 18  1  0  0  0
 18 19  1  0  0  0
 19 20  1  0  0  0
 19 24  2  0  0  0
 20 21  2  0  0  0
 21 22  1  0  0  0
 22 23  2  0  0  0
 23 24  1  0  0  0
M  END
> <minimizedAffinity>
-9.00596

$$$$
