CHEMBL4778971


 36 41  0  0  0  0  0  0  0  0999 V2000
  -18.3939    2.5828  -15.3406 C   0  0  0  0  0  0  0  0  0  0  0  0
  -18.8505    3.8795  -15.1855 C   0  0  0  0  0  0  0  0  0  0  0  0
  -20.1645    3.9013  -14.7935 N   0  0  0  0  0  0  0  0  0  0  0  0
  -20.5221    2.6376  -14.7309 C   0  0  0  0  0  0  0  0  0  0  0  0
  -21.6808    2.0169  -14.2058 C   0  0  0  0  0  0  0  0  0  0  0  0
  -21.8517    0.6788  -14.3208 C   0  0  0  0  0  0  0  0  0  0  0  0
  -20.8846   -0.1355  -15.0478 C   0  0  0  0  0  0  0  0  0  0  0  0
  -19.7414    0.4353  -15.4584 C   0  0  0  0  0  0  0  0  0  0  0  0
  -19.5381    1.8027  -15.2380 N   0  0  0  0  0  0  0  0  0  0  0  0
  -15.2907   -0.1763  -12.7343 C   0  0  0  0  0  0  0  0  0  0  0  0
  -15.5502    0.7324  -13.8978 C   0  0  0  0  0  0  0  0  0  0  0  0
  -16.8424    0.9852  -14.3104 C   0  0  0  0  0  0  0  0  0  0  0  0
  -17.0528    2.0035  -15.2371 C   0  0  0  0  0  0  0  0  0  0  0  0
  -15.9473    2.6590  -15.8507 C   0  0  0  0  0  0  0  0  0  0  0  0
  -16.0537    3.6487  -16.8651 C   0  0  0  0  0  0  0  0  0  0  0  0
  -14.9355    4.2825  -17.3835 C   0  0  0  0  0  0  0  0  0  0  0  0
  -15.0738    5.1888  -18.3590 F   0  0  0  0  0  0  0  0  0  0  0  0
  -13.6843    3.9881  -16.8900 C   0  0  0  0  0  0  0  0  0  0  0  0
  -13.5718    3.0201  -15.8956 C   0  0  0  0  0  0  0  0  0  0  0  0
  -12.3419    2.7794  -15.4103 F   0  0  0  0  0  0  0  0  0  0  0  0
  -14.6650    2.3207  -15.3786 C   0  0  0  0  0  0  0  0  0  0  0  0
  -14.4857    1.3932  -14.4091 N   0  0  0  0  0  0  0  0  0  0  0  0
  -23.0547    0.1551  -13.6715 C   0  0  0  0  0  0  0  0  0  0  0  0
  -23.3519    0.5734  -12.3758 C   0  0  0  0  0  0  0  0  0  0  0  0
  -24.3450   -0.0755  -11.6536 C   0  0  0  0  0  0  0  0  0  0  0  0
  -25.0786   -1.1300  -12.2224 C   0  0  0  0  0  0  0  0  0  0  0  0
  -24.8016   -1.5159  -13.5423 C   0  0  0  0  0  0  0  0  0  0  0  0
  -23.7964   -0.8733  -14.2667 C   0  0  0  0  0  0  0  0  0  0  0  0
  -26.1437   -1.8427  -11.4124 C   0  0  0  0  0  0  0  0  0  0  0  0
  -27.5578   -1.2883  -11.7689 C   0  0  0  0  0  0  0  0  0  0  0  0
  -28.6451   -1.8898  -10.9714 N   0  0  0  0  0  0  0  0  0  0  0  0
  -28.3174   -1.7264   -9.5430 C   0  0  0  0  0  0  0  0  0  0  0  0
  -26.9363   -2.3091   -9.1731 C   0  0  0  0  0  0  0  0  0  0  0  0
  -25.8470   -1.7331   -9.9698 N   0  0  0  0  0  0  0  0  0  0  0  0
  -28.6730   -2.8870  -11.1802 H   0  0  0  0  0  0  0  0  0  0  0  0
  -24.9714   -2.2132   -9.7690 H   0  0  0  0  0  0  0  0  0  0  0  0
 10 11  1  0  0  0
 11 12  1  0  0  0
 11 22  2  0  0  0
 12 13  2  0  0  0
 13  1  1  0  0  0
 13 14  1  0  0  0
  1  2  2  0  0  0
  1  9  1  0  0  0
  2  3  1  0  0  0
  3  4  2  0  0  0
  4  5  1  0  0  0
  4  9  1  0  0  0
  5  6  2  0  0  0
  6 23  1  0  0  0
  6  7  1  0  0  0
 23 24  1  0  0  0
 23 28  2  0  0  0
 24 25  2  0  0  0
 25 26  1  0  0  0
 26 29  1  0  0  0
 26 27  2  0  0  0
 29 30  1  0  0  0
 29 34  1  0  0  0
 30 31  1  0  0  0
 31 32  1  0  0  0
 31 35  1  0  0  0
 32 33  1  0  0  0
 33 34  1  0  0  0
 34 36  1  0  0  0
 27 28  1  0  0  0
  7  8  2  0  0  0
  8  9  1  0  0  0
 14 15  1  0  0  0
 14 21  2  0  0  0
 15 16  2  0  0  0
 16 17  1  0  0  0
 16 18  1  0  0  0
 18 19  2  0  0  0
 19 20  1  0  0  0
 19 21  1  0  0  0
 21 22  1  0  0  0
M  END
> <minimizedAffinity>
-11.19561

$$$$
