CHEMBL4447901


 35 40  0  0  0  0  0  0  0  0999 V2000
  -27.3733   -1.7064   -9.3721 C   0  0  0  0  0  0  0  0  0  0  0  0
  -28.1678   -1.6866  -10.5274 C   0  0  0  0  0  0  0  0  0  0  0  0
  -27.5873   -1.5380  -11.7968 C   0  0  0  0  0  0  0  0  0  0  0  0
  -26.2013   -1.3953  -11.9461 C   0  0  0  0  0  0  0  0  0  0  0  0
  -25.4081   -1.4280  -10.7936 C   0  0  0  0  0  0  0  0  0  0  0  0
  -25.9879   -1.6032   -9.5245 C   0  0  0  0  0  0  0  0  0  0  0  0
  -27.6172   -5.0246   -8.7641 N   0  0  0  0  0  0  0  0  0  0  0  0
  -28.2386   -4.4338   -7.6765 C   0  0  0  0  0  0  0  0  0  0  0  0
  -28.7241   -5.3070   -6.7721 N   0  0  0  0  0  0  0  0  0  0  0  0
  -29.2798   -4.8379   -5.6467 C   0  0  0  0  0  0  0  0  0  0  0  0
  -29.4186   -3.5656   -5.2792 N   0  0  0  0  0  0  0  0  0  0  0  0
  -28.9346   -2.6978   -6.1891 C   0  0  0  0  0  0  0  0  0  0  0  0
  -28.9108   -1.3121   -6.1059 C   0  0  0  0  0  0  0  0  0  0  0  0
  -28.3216   -0.8342   -7.2381 C   0  0  0  0  0  0  0  0  0  0  0  0
  -27.9782   -1.8689   -8.0855 N   0  0  0  0  0  0  0  0  0  0  0  0
  -28.3521   -3.0648   -7.4170 C   0  0  0  0  0  0  0  0  0  0  0  0
  -28.3410    0.6479   -7.3174 C   0  0  0  0  0  0  0  0  0  0  0  0
  -29.3457    0.9922   -6.1640 C   0  0  0  0  0  0  0  0  0  0  0  0
  -29.3752   -0.2412   -5.2071 C   0  0  0  0  0  0  0  0  0  0  0  0
  -27.5127   -6.0184   -8.5874 H   0  0  0  0  0  0  0  0  0  0  0  0
  -26.7788   -4.5544   -9.0767 H   0  0  0  0  0  0  0  0  0  0  0  0
  -25.5852   -1.3493  -13.3297 C   0  0  0  0  0  0  0  0  0  0  0  0
  -24.1504   -0.8587  -13.4562 C   0  0  0  0  0  0  0  0  0  0  0  0
  -23.2115   -1.6443  -13.3299 O   0  0  0  0  0  0  0  0  0  0  0  0
  -24.0154    0.4815  -13.7736 N   0  0  0  0  0  0  0  0  0  0  0  0
  -24.7661    1.0870  -13.4647 H   0  0  0  0  0  0  0  0  0  0  0  0
  -22.7676    1.0950  -14.0247 C   0  0  0  0  0  0  0  0  0  0  0  0
  -22.6886    2.4895  -13.8880 C   0  0  0  0  0  0  0  0  0  0  0  0
  -21.4835    3.1628  -14.1055 C   0  0  0  0  0  0  0  0  0  0  0  0
  -20.3838    2.4375  -14.5332 C   0  0  0  0  0  0  0  0  0  0  0  0
  -20.4637    1.0591  -14.7169 C   0  0  0  0  0  0  0  0  0  0  0  0
  -21.6420    0.3690  -14.4383 C   0  0  0  0  0  0  0  0  0  0  0  0
  -19.1842    0.5043  -15.2540 C   0  0  0  0  0  0  0  0  0  0  0  0
  -18.2525    1.7275  -15.3138 C   0  0  0  0  0  0  0  0  0  0  0  0
  -19.0282    2.9710  -14.8568 C   0  0  0  0  0  0  0  0  0  0  0  0
  7  8  1  0  0  0
  7 20  1  0  0  0
  7 21  1  0  0  0
  8  9  1  0  0  0
  8 16  2  0  0  0
  9 10  2  0  0  0
 10 11  1  0  0  0
 11 12  2  0  0  0
 12 13  1  0  0  0
 12 16  1  0  0  0
 13 14  2  0  0  0
 13 19  1  0  0  0
 14 15  1  0  0  0
 14 17  1  0  0  0
 15  1  1  0  0  0
 15 16  1  0  0  0
  1  2  1  0  0  0
  1  6  2  0  0  0
  2  3  2  0  0  0
  3  4  1  0  0  0
  4 22  1  0  0  0
  4  5  2  0  0  0
 22 23  1  0  0  0
 23 24  2  0  0  0
 23 25  1  0  0  0
 25 27  1  0  0  0
 25 26  1  0  0  0
 27 28  1  0  0  0
 27 32  2  0  0  0
 28 29  2  0  0  0
 29 30  1  0  0  0
 30 31  2  0  0  0
 30 35  1  0  0  0
 31 32  1  0  0  0
 31 33  1  0  0  0
 33 34  1  0  0  0
 34 35  1  0  0  0
  5  6  1  0  0  0
 17 18  1  0  0  0
 18 19  1  0  0  0
M  END
> <minimizedAffinity>
-11.10057

$$$$
