CHEMBL3690486


 35 38  0  0  0  0  0  0  0  0999 V2000
  -23.1787    0.3178  -13.7925 C   0  0  0  0  0  0  0  0  0  0  0  0
  -21.9825   -0.4594  -14.1466 C   0  0  0  0  0  0  0  0  0  0  0  0
  -20.8395    0.1643  -14.4792 C   0  0  0  0  0  0  0  0  0  0  0  0
  -20.7787    1.5591  -14.4552 N   0  0  0  0  0  0  0  0  0  0  0  0
  -19.7359    2.4456  -14.7098 C   0  0  0  0  0  0  0  0  0  0  0  0
  -20.3278    3.6965  -14.5753 C   0  0  0  0  0  0  0  0  0  0  0  0
  -21.6444    3.6206  -14.2285 N   0  0  0  0  0  0  0  0  0  0  0  0
  -21.8940    2.3355  -14.1437 C   0  0  0  0  0  0  0  0  0  0  0  0
  -23.1009    1.6692  -13.7969 C   0  0  0  0  0  0  0  0  0  0  0  0
  -28.0400   -2.2501  -12.4715 N   0  0  0  0  0  0  0  0  0  0  0  0
  -26.7907   -1.6794  -12.7331 C   0  0  0  0  0  0  0  0  0  0  0  0
  -26.2022   -0.8222  -11.8112 C   0  0  0  0  0  0  0  0  0  0  0  0
  -25.0198   -0.1545  -12.1309 C   0  0  0  0  0  0  0  0  0  0  0  0
  -24.4509   -0.3376  -13.3904 C   0  0  0  0  0  0  0  0  0  0  0  0
  -25.0444   -1.1044  -14.3357 N   0  0  0  0  0  0  0  0  0  0  0  0
  -26.1981   -1.7303  -13.9924 C   0  0  0  0  0  0  0  0  0  0  0  0
  -28.2199   -2.4089  -11.4842 H   0  0  0  0  0  0  0  0  0  0  0  0
  -28.2478   -3.0708  -13.0325 H   0  0  0  0  0  0  0  0  0  0  0  0
  -18.3485    2.1362  -15.0857 C   0  0  0  0  0  0  0  0  0  0  0  0
  -17.6330    3.0877  -15.8287 C   0  0  0  0  0  0  0  0  0  0  0  0
  -16.3131    2.8603  -16.2004 C   0  0  0  0  0  0  0  0  0  0  0  0
  -15.6823    1.6756  -15.8335 C   0  0  0  0  0  0  0  0  0  0  0  0
  -16.3473    0.7173  -15.0660 C   0  0  0  0  0  0  0  0  0  0  0  0
  -17.6817    0.9603  -14.6932 C   0  0  0  0  0  0  0  0  0  0  0  0
  -15.7391   -0.4911  -14.6460 N   0  0  0  0  0  0  0  0  0  0  0  0
  -15.4591   -0.8480  -13.3431 C   0  0  0  0  0  0  0  0  0  0  0  0
  -15.7189   -0.2116  -12.3328 O   0  0  0  0  0  0  0  0  0  0  0  0
  -14.7765   -2.0409  -13.2558 N   0  0  0  0  0  0  0  0  0  0  0  0
  -15.4882   -1.1517  -15.3657 H   0  0  0  0  0  0  0  0  0  0  0  0
  -14.9719   -2.7356  -13.9630 H   0  0  0  0  0  0  0  0  0  0  0  0
  -14.4384   -2.5368  -11.9123 C   0  0  0  0  0  0  0  0  0  0  0  0
  -15.5550   -3.2836  -11.1654 C   0  0  0  0  0  0  0  0  0  0  0  0
  -15.1031   -4.4102  -10.5679 F   0  0  0  0  0  0  0  0  0  0  0  0
  -16.0547   -2.4943  -10.1801 F   0  0  0  0  0  0  0  0  0  0  0  0
  -16.5848   -3.6153  -11.9709 F   0  0  0  0  0  0  0  0  0  0  0  0
 10 11  1  0  0  0
 10 17  1  0  0  0
 10 18  1  0  0  0
 11 12  1  0  0  0
 11 16  2  0  0  0
 12 13  2  0  0  0
 13 14  1  0  0  0
 14  1  1  0  0  0
 14 15  2  0  0  0
  1  2  1  0  0  0
  1  9  2  0  0  0
  2  3  2  0  0  0
  3  4  1  0  0  0
  4  5  1  0  0  0
  4  8  1  0  0  0
  5 19  1  0  0  0
  5  6  2  0  0  0
 19 20  1  0  0  0
 19 24  2  0  0  0
 20 21  2  0  0  0
 21 22  1  0  0  0
 22 23  2  0  0  0
 23 25  1  0  0  0
 23 24  1  0  0  0
 25 26  1  0  0  0
 25 29  1  0  0  0
 26 27  2  0  0  0
 26 28  1  0  0  0
 28 31  1  0  0  0
 28 30  1  0  0  0
 31 32  1  0  0  0
 32 33  1  0  0  0
 32 34  1  0  0  0
 32 35  1  0  0  0
  6  7  1  0  0  0
  7  8  2  0  0  0
  8  9  1  0  0  0
 15 16  1  0  0  0
M  END
> <minimizedAffinity>
-10.88465

$$$$
