CHEMBL4437803


 28 30  0  0  0  0  0  0  0  0999 V2000
  -25.7068   -1.6218  -12.0661 C   0  0  0  0  0  0  0  0  0  0  0  0
  -26.6197   -1.9413  -13.0717 C   0  0  0  0  0  0  0  0  0  0  0  0
  -26.3190   -1.6949  -14.4068 C   0  0  0  0  0  0  0  0  0  0  0  0
  -25.1040   -1.1110  -14.7543 C   0  0  0  0  0  0  0  0  0  0  0  0
  -24.1833   -0.7367  -13.7751 C   0  0  0  0  0  0  0  0  0  0  0  0
  -24.4975   -0.9880  -12.4245 C   0  0  0  0  0  0  0  0  0  0  0  0
  -28.1519   -1.1442  -10.4770 O   0  0  0  0  0  0  0  0  0  0  0  0
  -27.1277   -1.6265  -10.0102 C   0  0  0  0  0  0  0  0  0  0  0  0
  -25.9584   -1.9049  -10.6991 N   0  0  0  0  0  0  0  0  0  0  0  0
  -27.0249   -1.9384   -8.6682 N   0  0  0  0  0  0  0  0  0  0  0  0
  -25.2687   -2.4567  -10.2166 H   0  0  0  0  0  0  0  0  0  0  0  0
  -26.2859   -2.5555   -8.3778 H   0  0  0  0  0  0  0  0  0  0  0  0
  -28.1642   -1.7712   -7.7651 C   0  0  0  0  0  0  0  0  0  0  0  0
  -27.8525   -0.6947   -6.7188 C   0  0  0  0  0  0  0  0  0  0  0  0
  -28.9901   -0.5277   -5.7138 C   0  0  0  0  0  0  0  0  0  0  0  0
  -29.3582   -1.8517   -5.0518 C   0  0  0  0  0  0  0  0  0  0  0  0
  -29.6772   -2.9259   -6.0871 C   0  0  0  0  0  0  0  0  0  0  0  0
  -28.5371   -3.0998   -7.0909 C   0  0  0  0  0  0  0  0  0  0  0  0
  -22.9523   -0.1091  -14.0914 N   0  0  0  0  0  0  0  0  0  0  0  0
  -22.6473    1.2399  -13.9521 C   0  0  0  0  0  0  0  0  0  0  0  0
  -23.4048    2.1317  -13.5819 O   0  0  0  0  0  0  0  0  0  0  0  0
  -22.1918   -0.6808  -14.4492 H   0  0  0  0  0  0  0  0  0  0  0  0
  -21.2355    1.6073  -14.2971 C   0  0  0  0  0  0  0  0  0  0  0  0
  -20.3998    0.6365  -14.8496 C   0  0  0  0  0  0  0  0  0  0  0  0
  -19.1017    0.9956  -15.1921 C   0  0  0  0  0  0  0  0  0  0  0  0
  -18.6825    2.3009  -14.9737 C   0  0  0  0  0  0  0  0  0  0  0  0
  -19.5805    3.2007  -14.4140 C   0  0  0  0  0  0  0  0  0  0  0  0
  -20.8529    2.8931  -14.0652 N   0  0  0  0  0  0  0  0  0  0  0  0
  7  8  2  0  0  0
  8  9  1  0  0  0
  8 10  1  0  0  0
  9  1  1  0  0  0
  9 11  1  0  0  0
  1  2  1  0  0  0
  1  6  2  0  0  0
  2  3  2  0  0  0
  3  4  1  0  0  0
  4  5  2  0  0  0
  5 19  1  0  0  0
  5  6  1  0  0  0
 19 20  1  0  0  0
 19 22  1  0  0  0
 20 21  2  0  0  0
 20 23  1  0  0  0
 23 24  1  0  0  0
 23 28  2  0  0  0
 24 25  2  0  0  0
 25 26  1  0  0  0
 26 27  2  0  0  0
 27 28  1  0  0  0
 10 13  1  0  0  0
 10 12  1  0  0  0
 13 14  1  0  0  0
 13 18  1  0  0  0
 14 15  1  0  0  0
 15 16  1  0  0  0
 16 17  1  0  0  0
 17 18  1  0  0  0
M  END
> <minimizedAffinity>
-10.14807

$$$$
