CHEMBL91250


 24 27  0  0  0  0  0  0  0  0999 V2000
  -17.9182    2.8201  -15.3803 C   0  0  0  0  0  0  0  0  0  0  0  0
  -17.9322    1.4158  -15.4933 C   0  0  0  0  0  0  0  0  0  0  0  0
  -19.0762    0.6681  -15.1659 C   0  0  0  0  0  0  0  0  0  0  0  0
  -20.2012    1.3429  -14.7284 C   0  0  0  0  0  0  0  0  0  0  0  0
  -20.1652    2.7382  -14.6152 C   0  0  0  0  0  0  0  0  0  0  0  0
  -19.0489    3.4941  -14.9173 C   0  0  0  0  0  0  0  0  0  0  0  0
  -21.3921    3.2255  -14.1828 N   0  0  0  0  0  0  0  0  0  0  0  0
  -22.3113    2.2062  -14.0012 C   0  0  0  0  0  0  0  0  0  0  0  0
  -23.4787    2.3561  -13.6912 O   0  0  0  0  0  0  0  0  0  0  0  0
  -21.5536    0.9333  -14.3086 C   0  0  0  0  0  0  0  0  0  0  0  0
  -22.0094   -0.3259  -14.1894 C   0  0  0  0  0  0  0  0  0  0  0  0
  -21.6266    4.1952  -14.0423 H   0  0  0  0  0  0  0  0  0  0  0  0
  -23.3066   -0.6295  -13.7067 C   0  0  0  0  0  0  0  0  0  0  0  0
  -24.4844   -1.0072  -14.3299 C   0  0  0  0  0  0  0  0  0  0  0  0
  -25.4416   -1.2700  -13.3156 C   0  0  0  0  0  0  0  0  0  0  0  0
  -24.8376   -0.9864  -12.1087 C   0  0  0  0  0  0  0  0  0  0  0  0
  -23.5476   -0.5943  -12.3501 N   0  0  0  0  0  0  0  0  0  0  0  0
  -25.4622   -1.1335  -10.7656 C   0  0  0  0  0  0  0  0  0  0  0  0
  -26.6755   -2.0784  -10.8668 C   0  0  0  0  0  0  0  0  0  0  0  0
  -27.5715   -1.7350  -12.0726 C   0  0  0  0  0  0  0  0  0  0  0  0
  -26.8181   -1.8375  -13.4147 C   0  0  0  0  0  0  0  0  0  0  0  0
  -22.8616   -0.3775  -11.6401 H   0  0  0  0  0  0  0  0  0  0  0  0
  -15.6254    2.9359  -15.9487 C   0  0  0  0  0  0  0  0  0  0  0  0
  -16.8407    3.6192  -15.6587 O   0  0  0  0  0  0  0  0  0  0  0  0
 23 24  1  0  0  0
 24  1  1  0  0  0
  1  2  1  0  0  0
  1  6  2  0  0  0
  2  3  2  0  0  0
  3  4  1  0  0  0
  4  5  2  0  0  0
  4 10  1  0  0  0
  5  6  1  0  0  0
  5  7  1  0  0  0
  7  8  1  0  0  0
  7 12  1  0  0  0
  8  9  2  0  0  0
  8 10  1  0  0  0
 10 11  2  0  0  0
 11 13  1  0  0  0
 13 14  2  0  0  0
 13 17  1  0  0  0
 14 15  1  0  0  0
 15 16  2  0  0  0
 15 21  1  0  0  0
 16 17  1  0  0  0
 16 18  1  0  0  0
 17 22  1  0  0  0
 18 19  1  0  0  0
 19 20  1  0  0  0
 20 21  1  0  0  0
M  END
> <minimizedAffinity>
-10.12777

$$$$
