CHEMBL3809643


 38 43  0  0  0  0  0  0  0  0999 V2000
  -30.2103   -5.9766   -6.8424 C   0  0  0  0  0  0  0  0  0  0  0  0
  -30.2241   -6.1149   -5.4604 C   0  0  0  0  0  0  0  0  0  0  0  0
  -29.7786   -5.0690   -4.6665 C   0  0  0  0  0  0  0  0  0  0  0  0
  -29.2099   -3.9350   -5.2682 C   0  0  0  0  0  0  0  0  0  0  0  0
  -28.8137   -2.7047   -4.7156 C   0  0  0  0  0  0  0  0  0  0  0  0
  -28.0221   -2.1214   -5.6526 C   0  0  0  0  0  0  0  0  0  0  0  0
  -28.2235   -2.7322   -6.8893 N   0  0  0  0  0  0  0  0  0  0  0  0
  -27.6826   -2.0998   -8.0291 C   0  0  0  0  0  0  0  0  0  0  0  0
  -27.4049   -0.9009   -7.8915 O   0  0  0  0  0  0  0  0  0  0  0  0
  -27.5525   -2.8272   -9.1699 N   0  0  0  0  0  0  0  0  0  0  0  0
  -28.9817   -3.8930   -6.6614 C   0  0  0  0  0  0  0  0  0  0  0  0
  -29.5636   -4.8910   -7.4799 C   0  0  0  0  0  0  0  0  0  0  0  0
  -27.9315   -3.7548   -9.2766 H   0  0  0  0  0  0  0  0  0  0  0  0
  -27.1950   -2.1565  -10.3337 C   0  0  0  0  0  0  0  0  0  0  0  0
  -26.0449   -2.3576  -11.1361 C   0  0  0  0  0  0  0  0  0  0  0  0
  -25.9030   -1.1849  -11.8376 C   0  0  0  0  0  0  0  0  0  0  0  0
  -27.0563   -0.4700  -11.6877 O   0  0  0  0  0  0  0  0  0  0  0  0
  -27.8952   -1.1120  -10.7821 N   0  0  0  0  0  0  0  0  0  0  0  0
  -24.6413   -0.7268  -12.6038 C   0  0  0  0  0  0  0  0  0  0  0  0
  -23.3554   -0.5435  -11.7773 C   0  0  0  0  0  0  0  0  0  0  0  0
  -24.0774    0.6666  -12.2419 C   0  0  0  0  0  0  0  0  0  0  0  0
  -24.5275   -1.1550  -14.0494 C   0  0  0  0  0  0  0  0  0  0  0  0
  -23.6927   -0.3787  -14.7766 F   0  0  0  0  0  0  0  0  0  0  0  0
  -24.0610   -2.4270  -14.1365 F   0  0  0  0  0  0  0  0  0  0  0  0
  -25.7385   -1.1292  -14.6566 F   0  0  0  0  0  0  0  0  0  0  0  0
  -30.7850   -7.0133   -7.5441 O   0  0  0  0  0  0  0  0  0  0  0  0
  -33.4219  -11.3776   -6.3832 C   0  0  0  0  0  0  0  0  0  0  0  0
  -32.1728  -11.1084   -7.2214 C   0  0  0  0  0  0  0  0  0  0  0  0
  -31.8202   -9.6044   -7.2013 C   0  0  0  0  0  0  0  0  0  0  0  0
  -30.4434   -9.3344   -7.7339 C   0  0  0  0  0  0  0  0  0  0  0  0
  -29.5429  -10.3581   -7.9810 C   0  0  0  0  0  0  0  0  0  0  0  0
  -28.3284  -10.1426   -8.5311 N   0  0  0  0  0  0  0  0  0  0  0  0
  -28.0077   -8.8668   -8.7870 C   0  0  0  0  0  0  0  0  0  0  0  0
  -28.7579   -7.7958   -8.4984 N   0  0  0  0  0  0  0  0  0  0  0  0
  -29.9587   -8.0595   -7.9506 C   0  0  0  0  0  0  0  0  0  0  0  0
  -29.8994  -11.7860   -7.6254 C   0  0  0  0  0  0  0  0  0  0  0  0
  -31.0445  -11.9141   -6.7049 N   0  0  0  0  0  0  0  0  0  0  0  0
  -30.7764  -11.5581   -5.7929 H   0  0  0  0  0  0  0  0  0  0  0  0
 27 28  1  0  0  0
 28 29  1  0  0  0
 28 37  1  0  0  0
 29 30  1  0  0  0
 30 31  1  0  0  0
 30 35  2  0  0  0
 31 32  2  0  0  0
 31 36  1  0  0  0
 32 33  1  0  0  0
 33 34  2  0  0  0
 34 35  1  0  0  0
 35 26  1  0  0  0
 26  1  1  0  0  0
  1  2  1  0  0  0
  1 12  2  0  0  0
  2  3  2  0  0  0
  3  4  1  0  0  0
  4  5  1  0  0  0
  4 11  2  0  0  0
  5  6  2  0  0  0
  6  7  1  0  0  0
  7  8  1  0  0  0
  7 11  1  0  0  0
  8  9  2  0  0  0
  8 10  1  0  0  0
 10 14  1  0  0  0
 10 13  1  0  0  0
 14 15  1  0  0  0
 14 18  2  0  0  0
 15 16  2  0  0  0
 16 19  1  0  0  0
 16 17  1  0  0  0
 19 22  1  0  0  0
 19 20  1  0  0  0
 19 21  1  0  0  0
 22 23  1  0  0  0
 22 24  1  0  0  0
 22 25  1  0  0  0
 20 21  1  0  0  0
 17 18  1  0  0  0
 11 12  1  0  0  0
 36 37  1  0  0  0
 37 38  1  0  0  0
M  END
> <minimizedAffinity>
-10.57446

$$$$
