CHEMBL3981077


 30 33  0  0  0  0  0  0  0  0999 V2000
  -29.1962   -4.9432   -5.2940 C   0  0  0  0  0  0  0  0  0  0  0  0
  -29.7927   -5.4827   -6.4378 C   0  0  0  0  0  0  0  0  0  0  0  0
  -29.5647   -6.8090   -6.8110 C   0  0  0  0  0  0  0  0  0  0  0  0
  -28.7138   -7.6192   -6.0803 C   0  0  0  0  0  0  0  0  0  0  0  0
  -28.5422   -8.8961   -6.4615 N   0  0  0  0  0  0  0  0  0  0  0  0
  -27.6818   -9.6268   -5.7147 C   0  0  0  0  0  0  0  0  0  0  0  0
  -27.0023   -9.1106   -4.6215 C   0  0  0  0  0  0  0  0  0  0  0  0
  -27.1904   -7.8275   -4.2283 N   0  0  0  0  0  0  0  0  0  0  0  0
  -28.0454   -7.0830   -4.9582 C   0  0  0  0  0  0  0  0  0  0  0  0
  -28.3023   -5.7670   -4.5889 C   0  0  0  0  0  0  0  0  0  0  0  0
  -26.0526   -9.9053   -3.8694 C   0  0  0  0  0  0  0  0  0  0  0  0
  -26.1098  -11.2403   -3.3982 C   0  0  0  0  0  0  0  0  0  0  0  0
  -25.0075  -11.6088   -2.7493 N   0  0  0  0  0  0  0  0  0  0  0  0
  -24.2290  -10.5166   -2.8021 N   0  0  0  0  0  0  0  0  0  0  0  0
  -24.8075   -9.4718   -3.4597 C   0  0  0  0  0  0  0  0  0  0  0  0
  -23.3106  -10.5559   -2.3711 H   0  0  0  0  0  0  0  0  0  0  0  0
  -29.5052   -3.6484   -4.8074 N   0  0  0  0  0  0  0  0  0  0  0  0
  -27.9254   -1.2214   -7.2159 C   0  0  0  0  0  0  0  0  0  0  0  0
  -28.3389   -0.0047   -6.6909 C   0  0  0  0  0  0  0  0  0  0  0  0
  -29.1515    0.0004   -5.5636 C   0  0  0  0  0  0  0  0  0  0  0  0
  -29.5464    1.1752   -5.0540 F   0  0  0  0  0  0  0  0  0  0  0  0
  -29.5536   -1.1803   -4.9408 C   0  0  0  0  0  0  0  0  0  0  0  0
  -29.1544   -2.4258   -5.4403 C   0  0  0  0  0  0  0  0  0  0  0  0
  -28.3411   -2.4125   -6.5963 C   0  0  0  0  0  0  0  0  0  0  0  0
  -27.7169   -1.9620   -9.4703 C   0  0  0  0  0  0  0  0  0  0  0  0
  -27.1207   -1.3861   -8.3119 O   0  0  0  0  0  0  0  0  0  0  0  0
  -30.3884   -3.5763   -3.6091 C   0  0  0  0  0  0  0  0  0  0  0  0
  -31.6369   -4.4770   -3.7164 C   0  0  0  0  0  0  0  0  0  0  0  0
  -31.6289   -5.5269   -2.7535 O   0  0  0  0  0  0  0  0  0  0  0  0
  -31.0278   -6.2115   -3.1012 H   0  0  0  0  0  0  0  0  0  0  0  0
 25 26  1  0  0  0
 26 18  1  0  0  0
 18 19  1  0  0  0
 18 24  2  0  0  0
 19 20  2  0  0  0
 20 21  1  0  0  0
 20 22  1  0  0  0
 22 23  2  0  0  0
 23 17  1  0  0  0
 23 24  1  0  0  0
 17 27  1  0  0  0
 17  1  1  0  0  0
 27 28  1  0  0  0
 28 29  1  0  0  0
 29 30  1  0  0  0
  1  2  1  0  0  0
  1 10  2  0  0  0
  2  3  2  0  0  0
  3  4  1  0  0  0
  4  5  1  0  0  0
  4  9  2  0  0  0
  5  6  2  0  0  0
  6  7  1  0  0  0
  7 11  1  0  0  0
  7  8  2  0  0  0
 11 12  1  0  0  0
 11 15  2  0  0  0
 12 13  2  0  0  0
 13 14  1  0  0  0
 14 15  1  0  0  0
 14 16  1  0  0  0
  8  9  1  0  0  0
  9 10  1  0  0  0
M  END
> <minimizedAffinity>
-8.53309

$$$$
