CHEMBL3671506


 35 37  0  0  0  0  0  0  0  0999 V2000
  -29.0904   -5.5981   -5.5705 C   0  0  0  0  0  0  0  0  0  0  0  0
  -28.6977   -6.8687   -5.1548 C   0  0  0  0  0  0  0  0  0  0  0  0
  -28.5217   -7.9228   -6.0702 C   0  0  0  0  0  0  0  0  0  0  0  0
  -28.1551   -9.2253   -5.7017 C   0  0  0  0  0  0  0  0  0  0  0  0
  -27.9354  -10.1833   -6.6177 N   0  0  0  0  0  0  0  0  0  0  0  0
  -28.1465   -9.8490   -7.8952 C   0  0  0  0  0  0  0  0  0  0  0  0
  -28.5248   -8.6488   -8.3528 N   0  0  0  0  0  0  0  0  0  0  0  0
  -28.7048   -7.6908   -7.4382 C   0  0  0  0  0  0  0  0  0  0  0  0
  -29.0708   -6.4098   -7.8442 C   0  0  0  0  0  0  0  0  0  0  0  0
  -29.2318   -5.3426   -6.9404 C   0  0  0  0  0  0  0  0  0  0  0  0
  -28.3908   -3.8805   -3.9846 C   0  0  0  0  0  0  0  0  0  0  0  0
  -27.2137   -3.8469   -4.3228 O   0  0  0  0  0  0  0  0  0  0  0  0
  -29.3747   -4.6643   -4.5562 N   0  0  0  0  0  0  0  0  0  0  0  0
  -30.3325   -4.5475   -4.2679 H   0  0  0  0  0  0  0  0  0  0  0  0
  -30.1737   -2.6611   -2.8349 C   0  0  0  0  0  0  0  0  0  0  0  0
  -28.9002   -3.0742   -2.8453 C   0  0  0  0  0  0  0  0  0  0  0  0
  -27.9908   -9.5321   -4.3328 N   0  0  0  0  0  0  0  0  0  0  0  0
  -28.8780   -9.6662   -3.8535 H   0  0  0  0  0  0  0  0  0  0  0  0
  -26.8969  -10.1493   -3.7001 C   0  0  0  0  0  0  0  0  0  0  0  0
  -26.9829  -11.4522   -3.1962 C   0  0  0  0  0  0  0  0  0  0  0  0
  -25.8401  -12.1260   -2.7599 C   0  0  0  0  0  0  0  0  0  0  0  0
  -24.6027  -11.4871   -2.7974 C   0  0  0  0  0  0  0  0  0  0  0  0
  -23.0431  -12.4511   -2.3385 Br  0  0  0  0  0  0  0  0  0  0  0  0
  -24.5038  -10.1624   -3.2092 C   0  0  0  0  0  0  0  0  0  0  0  0
  -25.6486   -9.5100   -3.6588 C   0  0  0  0  0  0  0  0  0  0  0  0
  -25.5428   -8.2416   -4.0871 F   0  0  0  0  0  0  0  0  0  0  0  0
  -29.6554   -4.1768   -7.5289 O   0  0  0  0  0  0  0  0  0  0  0  0
  -28.6863   -3.4892   -8.3154 C   0  0  0  0  0  0  0  0  0  0  0  0
  -28.0086   -2.3961   -7.4919 C   0  0  0  0  0  0  0  0  0  0  0  0
  -28.9123   -1.9384   -6.4243 N   0  0  0  0  0  0  0  0  0  0  0  0
  -29.1096   -2.5689   -5.6458 H   0  0  0  0  0  0  0  0  0  0  0  0
  -28.8668   -0.3341   -5.9581 S   0  0  0  0  0  0  0  0  0  0  0  0
  -27.5011   -0.3359   -4.8167 C   0  0  0  0  0  0  0  0  0  0  0  0
  -28.5039    0.4128   -7.1318 O   0  0  0  0  0  0  0  0  0  0  0  0
  -30.0895   -0.0588   -5.2356 O   0  0  0  0  0  0  0  0  0  0  0  0
 15 16  2  0  0  0
 16 11  1  0  0  0
 11 12  2  0  0  0
 11 13  1  0  0  0
 13  1  1  0  0  0
 13 14  1  0  0  0
  1  2  1  0  0  0
  1 10  2  0  0  0
  2  3  2  0  0  0
  3  4  1  0  0  0
  3  8  1  0  0  0
  4 17  1  0  0  0
  4  5  2  0  0  0
 17 19  1  0  0  0
 17 18  1  0  0  0
 19 20  1  0  0  0
 19 25  2  0  0  0
 20 21  2  0  0  0
 21 22  1  0  0  0
 22 23  1  0  0  0
 22 24  2  0  0  0
 24 25  1  0  0  0
 25 26  1  0  0  0
  5  6  1  0  0  0
  6  7  2  0  0  0
  7  8  1  0  0  0
  8  9  2  0  0  0
  9 10  1  0  0  0
 10 27  1  0  0  0
 27 28  1  0  0  0
 28 29  1  0  0  0
 29 30  1  0  0  0
 30 32  1  0  0  0
 30 31  1  0  0  0
 32 33  1  0  0  0
 32 34  2  0  0  0
 32 35  2  0  0  0
M  END
> <minimizedAffinity>
-7.47118

$$$$
