CHEMBL214258


 35 38  0  0  0  0  0  0  0  0999 V2000
  -29.0217   -4.2481   -6.2563 C   0  0  0  0  0  0  0  0  0  0  0  0
  -28.1628   -3.1795   -6.0142 C   0  0  0  0  0  0  0  0  0  0  0  0
  -27.8433   -2.2708   -7.0256 C   0  0  0  0  0  0  0  0  0  0  0  0
  -28.3482   -2.4232   -8.3186 C   0  0  0  0  0  0  0  0  0  0  0  0
  -29.2386   -3.4715   -8.5618 C   0  0  0  0  0  0  0  0  0  0  0  0
  -29.5993   -4.3545   -7.5290 C   0  0  0  0  0  0  0  0  0  0  0  0
  -28.1079   -7.3345   -7.3799 N   0  0  0  0  0  0  0  0  0  0  0  0
  -28.5743   -7.6068   -6.0990 C   0  0  0  0  0  0  0  0  0  0  0  0
  -28.5190   -8.9067   -5.7414 N   0  0  0  0  0  0  0  0  0  0  0  0
  -28.9026   -9.2565   -4.5071 C   0  0  0  0  0  0  0  0  0  0  0  0
  -29.3447   -8.4539   -3.5397 N   0  0  0  0  0  0  0  0  0  0  0  0
  -29.4027   -7.1741   -3.9398 C   0  0  0  0  0  0  0  0  0  0  0  0
  -29.9224   -5.9275   -2.9145 S   0  0  0  0  0  0  0  0  0  0  0  0
  -29.7470   -4.7157   -4.0158 N   0  0  0  0  0  0  0  0  0  0  0  0
  -29.2886   -5.2132   -5.1751 C   0  0  0  0  0  0  0  0  0  0  0  0
  -29.0606   -6.6545   -5.1829 C   0  0  0  0  0  0  0  0  0  0  0  0
  -27.6455   -8.1580   -7.7527 H   0  0  0  0  0  0  0  0  0  0  0  0
  -27.5677   -6.4805   -7.4550 H   0  0  0  0  0  0  0  0  0  0  0  0
  -28.0234   -1.5547   -9.3859 N   0  0  0  0  0  0  0  0  0  0  0  0
  -27.2318   -1.8810  -10.4686 C   0  0  0  0  0  0  0  0  0  0  0  0
  -26.7982   -3.0012  -10.7132 O   0  0  0  0  0  0  0  0  0  0  0  0
  -26.9156   -0.7691  -11.2415 N   0  0  0  0  0  0  0  0  0  0  0  0
  -28.4941   -0.6624   -9.4199 H   0  0  0  0  0  0  0  0  0  0  0  0
  -26.7933    0.0809  -10.7033 H   0  0  0  0  0  0  0  0  0  0  0  0
  -25.9873   -0.9326  -12.3025 C   0  0  0  0  0  0  0  0  0  0  0  0
  -24.6980   -0.3915  -12.2348 C   0  0  0  0  0  0  0  0  0  0  0  0
  -23.8685   -0.3744  -13.3657 C   0  0  0  0  0  0  0  0  0  0  0  0
  -24.3477   -0.9309  -14.5640 C   0  0  0  0  0  0  0  0  0  0  0  0
  -25.6123   -1.5244  -14.6174 C   0  0  0  0  0  0  0  0  0  0  0  0
  -26.4135   -1.5412  -13.4806 C   0  0  0  0  0  0  0  0  0  0  0  0
  -27.6473   -2.0633  -13.5518 F   0  0  0  0  0  0  0  0  0  0  0  0
  -22.5048    0.2685  -13.3089 C   0  0  0  0  0  0  0  0  0  0  0  0
  -21.6235   -0.2196  -14.2239 F   0  0  0  0  0  0  0  0  0  0  0  0
  -22.5618    1.6128  -13.5320 F   0  0  0  0  0  0  0  0  0  0  0  0
  -21.9073    0.1211  -12.0940 F   0  0  0  0  0  0  0  0  0  0  0  0
  7  8  1  0  0  0
  7 17  1  0  0  0
  7 18  1  0  0  0
  8  9  1  0  0  0
  8 16  2  0  0  0
  9 10  2  0  0  0
 10 11  1  0  0  0
 11 12  2  0  0  0
 12 13  1  0  0  0
 12 16  1  0  0  0
 13 14  1  0  0  0
 14 15  2  0  0  0
 15  1  1  0  0  0
 15 16  1  0  0  0
  1  2  1  0  0  0
  1  6  2  0  0  0
  2  3  2  0  0  0
  3  4  1  0  0  0
  4 19  1  0  0  0
  4  5  2  0  0  0
 19 20  1  0  0  0
 19 23  1  0  0  0
 20 21  2  0  0  0
 20 22  1  0  0  0
 22 25  1  0  0  0
 22 24  1  0  0  0
 25 26  1  0  0  0
 25 30  2  0  0  0
 26 27  2  0  0  0
 27 32  1  0  0  0
 27 28  1  0  0  0
 32 33  1  0  0  0
 32 34  1  0  0  0
 32 35  1  0  0  0
 28 29  2  0  0  0
 29 30  1  0  0  0
 30 31  1  0  0  0
  5  6  1  0  0  0
M  END
> <minimizedAffinity>
-9.86449

$$$$
