CHEMBL3656122


 41 44  0  0  0  0  0  0  0  0999 V2000
  -22.9356    1.5981  -13.7890 O   0  0  0  0  0  0  0  0  0  0  0  0
  -24.8596   -1.0638  -12.1122 C   0  0  0  0  0  0  0  0  0  0  0  0
  -24.5665    0.1852  -12.6413 C   0  0  0  0  0  0  0  0  0  0  0  0
  -23.3629    0.3704  -13.3146 C   0  0  0  0  0  0  0  0  0  0  0  0
  -22.5501   -0.7303  -13.5470 C   0  0  0  0  0  0  0  0  0  0  0  0
  -22.9463   -1.9555  -13.0266 C   0  0  0  0  0  0  0  0  0  0  0  0
  -24.0716   -2.1472  -12.2949 N   0  0  0  0  0  0  0  0  0  0  0  0
  -27.5038   -1.6736   -9.5585 C   0  0  0  0  0  0  0  0  0  0  0  0
  -28.2175   -1.4289  -10.7204 C   0  0  0  0  0  0  0  0  0  0  0  0
  -27.3236   -1.1823  -11.7384 N   0  0  0  0  0  0  0  0  0  0  0  0
  -26.0336   -1.2578  -11.2677 C   0  0  0  0  0  0  0  0  0  0  0  0
  -26.1315   -1.5724   -9.9240 C   0  0  0  0  0  0  0  0  0  0  0  0
  -27.5519   -0.9775  -12.7039 H   0  0  0  0  0  0  0  0  0  0  0  0
  -27.6561   -1.0483   -7.2549 N   0  0  0  0  0  0  0  0  0  0  0  0
  -27.9823   -1.9727   -8.2099 C   0  0  0  0  0  0  0  0  0  0  0  0
  -28.6304   -2.9873   -7.9687 O   0  0  0  0  0  0  0  0  0  0  0  0
  -27.1700   -0.1982   -7.4785 H   0  0  0  0  0  0  0  0  0  0  0  0
  -27.6205   -2.7231   -4.9613 C   0  0  0  0  0  0  0  0  0  0  0  0
  -28.1078   -1.2614   -5.7101 S   0  0  0  0  0  0  0  0  0  0  0  0
  -29.7750   -0.9266   -5.3662 C   0  0  0  0  0  0  0  0  0  0  0  0
  -27.4388   -0.2697   -4.9054 O   0  0  0  0  0  0  0  0  0  0  0  0
  -21.6308    1.7156  -14.2294 C   0  0  0  0  0  0  0  0  0  0  0  0
  -20.9627    0.6929  -14.8959 C   0  0  0  0  0  0  0  0  0  0  0  0
  -19.6065    0.8181  -15.1960 C   0  0  0  0  0  0  0  0  0  0  0  0
  -18.9034    1.9955  -14.9158 C   0  0  0  0  0  0  0  0  0  0  0  0
  -19.6112    3.0630  -14.3494 C   0  0  0  0  0  0  0  0  0  0  0  0
  -20.9668    2.9228  -14.0035 C   0  0  0  0  0  0  0  0  0  0  0  0
  -17.5123    2.1305  -15.1532 N   0  0  0  0  0  0  0  0  0  0  0  0
  -16.8835    3.2668  -15.6258 C   0  0  0  0  0  0  0  0  0  0  0  0
  -17.4307    4.3511  -15.8103 O   0  0  0  0  0  0  0  0  0  0  0  0
  -15.5410    3.0579  -15.9177 N   0  0  0  0  0  0  0  0  0  0  0  0
  -16.9195    1.3471  -14.9102 H   0  0  0  0  0  0  0  0  0  0  0  0
  -15.3455    2.1620  -16.3475 H   0  0  0  0  0  0  0  0  0  0  0  0
  -14.7755    4.1401  -16.4333 C   0  0  0  0  0  0  0  0  0  0  0  0
  -15.0789    4.7292  -17.6682 C   0  0  0  0  0  0  0  0  0  0  0  0
  -14.2477    5.7171  -18.2149 C   0  0  0  0  0  0  0  0  0  0  0  0
  -14.5670    6.3363  -19.5446 C   0  0  0  0  0  0  0  0  0  0  0  0
  -13.0997    6.1068  -17.5126 C   0  0  0  0  0  0  0  0  0  0  0  0
  -12.8084    5.5434  -16.2677 C   0  0  0  0  0  0  0  0  0  0  0  0
  -13.6589    4.5833  -15.7271 C   0  0  0  0  0  0  0  0  0  0  0  0
  -13.3536    4.0256  -14.5452 F   0  0  0  0  0  0  0  0  0  0  0  0
 18 19  2  0  0  0
 19 20  1  0  0  0
 19 21  2  0  0  0
 19 14  1  0  0  0
 14 15  1  0  0  0
 14 17  1  0  0  0
 15 16  2  0  0  0
 15  8  1  0  0  0
  8  9  2  0  0  0
  8 12  1  0  0  0
  9 10  1  0  0  0
 10 11  1  0  0  0
 10 13  1  0  0  0
 11  2  1  0  0  0
 11 12  2  0  0  0
  2  3  1  0  0  0
  2  7  2  0  0  0
  3  4  2  0  0  0
  4  1  1  0  0  0
  4  5  1  0  0  0
  1 22  1  0  0  0
 22 23  1  0  0  0
 22 27  2  0  0  0
 23 24  2  0  0  0
 24 25  1  0  0  0
 25 28  1  0  0  0
 25 26  2  0  0  0
 28 29  1  0  0  0
 28 32  1  0  0  0
 29 30  2  0  0  0
 29 31  1  0  0  0
 31 34  1  0  0  0
 31 33  1  0  0  0
 34 35  1  0  0  0
 34 40  2  0  0  0
 35 36  2  0  0  0
 36 37  1  0  0  0
 36 38  1  0  0  0
 38 39  2  0  0  0
 39 40  1  0  0  0
 40 41  1  0  0  0
 26 27  1  0  0  0
  5  6  2  0  0  0
  6  7  1  0  0  0
M  END
> <minimizedAffinity>
-10.46294

$$$$
