CHEMBL305194


 33 36  0  0  0  0  0  0  0  0999 V2000
  -28.5025   -4.1962   -6.5180 C   0  0  0  0  0  0  0  0  0  0  0  0
  -28.6741   -4.8153   -5.3355 C   0  0  0  0  0  0  0  0  0  0  0  0
  -28.7353   -4.2384   -3.9391 C   0  0  0  0  0  0  0  0  0  0  0  0
  -28.5780   -3.0783   -3.6024 O   0  0  0  0  0  0  0  0  0  0  0  0
  -28.9979   -5.3070   -3.1101 N   0  0  0  0  0  0  0  0  0  0  0  0
  -29.0752   -6.4963   -3.8158 C   0  0  0  0  0  0  0  0  0  0  0  0
  -29.2615   -7.6717   -3.2140 N   0  0  0  0  0  0  0  0  0  0  0  0
  -29.2245   -8.7045   -4.0575 C   0  0  0  0  0  0  0  0  0  0  0  0
  -28.9998   -8.6276   -5.3802 N   0  0  0  0  0  0  0  0  0  0  0  0
  -28.7893   -7.4070   -5.9315 C   0  0  0  0  0  0  0  0  0  0  0  0
  -28.8703   -6.2717   -5.1662 C   0  0  0  0  0  0  0  0  0  0  0  0
  -29.0672   -5.2639   -2.1053 H   0  0  0  0  0  0  0  0  0  0  0  0
  -27.4527   -2.8103   -9.2645 C   0  0  0  0  0  0  0  0  0  0  0  0
  -27.8937   -2.1870   -7.9873 C   0  0  0  0  0  0  0  0  0  0  0  0
  -27.9327   -0.7886   -7.7528 C   0  0  0  0  0  0  0  0  0  0  0  0
  -28.3908   -0.5555   -6.4690 C   0  0  0  0  0  0  0  0  0  0  0  0
  -28.6186   -1.8030   -5.9273 N   0  0  0  0  0  0  0  0  0  0  0  0
  -28.3365   -2.8104   -6.8254 C   0  0  0  0  0  0  0  0  0  0  0  0
  -28.9535   -1.9756   -4.9883 H   0  0  0  0  0  0  0  0  0  0  0  0
  -28.5715    0.7543   -5.8694 C   0  0  0  0  0  0  0  0  0  0  0  0
  -28.4931    0.9864   -4.6695 O   0  0  0  0  0  0  0  0  0  0  0  0
  -28.8380    1.7360   -6.7617 O   0  0  0  0  0  0  0  0  0  0  0  0
  -28.8882    1.4706   -7.6911 H   0  0  0  0  0  0  0  0  0  0  0  0
  -28.4441   -7.3553   -7.2990 N   0  0  0  0  0  0  0  0  0  0  0  0
  -28.8417   -6.5262   -7.7296 H   0  0  0  0  0  0  0  0  0  0  0  0
  -28.4500   -8.4901   -8.1441 C   0  0  0  0  0  0  0  0  0  0  0  0
  -29.5720   -8.7972   -8.9231 C   0  0  0  0  0  0  0  0  0  0  0  0
  -29.5576   -9.9074   -9.7752 C   0  0  0  0  0  0  0  0  0  0  0  0
  -28.4148  -10.6976   -9.8704 C   0  0  0  0  0  0  0  0  0  0  0  0
  -28.4303  -11.7627  -10.6845 F   0  0  0  0  0  0  0  0  0  0  0  0
  -27.2777  -10.3810   -9.1398 C   0  0  0  0  0  0  0  0  0  0  0  0
  -25.8489  -11.3335   -9.2568 Cl  0  0  0  0  0  0  0  0  0  0  0  0
  -27.2911   -9.2733   -8.2961 C   0  0  0  0  0  0  0  0  0  0  0  0
 13 14  1  0  0  0
 14 15  1  0  0  0
 14 18  2  0  0  0
 15 16  2  0  0  0
 16 20  1  0  0  0
 16 17  1  0  0  0
 20 21  2  0  0  0
 20 22  1  0  0  0
 22 23  1  0  0  0
 17 18  1  0  0  0
 17 19  1  0  0  0
 18  1  1  0  0  0
  1  2  2  0  0  0
  2  3  1  0  0  0
  2 11  1  0  0  0
  3  4  2  0  0  0
  3  5  1  0  0  0
  5  6  1  0  0  0
  5 12  1  0  0  0
  6  7  1  0  0  0
  6 11  2  0  0  0
  7  8  2  0  0  0
  8  9  1  0  0  0
  9 10  2  0  0  0
 10 24  1  0  0  0
 10 11  1  0  0  0
 24 26  1  0  0  0
 24 25  1  0  0  0
 26 27  1  0  0  0
 26 33  2  0  0  0
 27 28  2  0  0  0
 28 29  1  0  0  0
 29 30  1  0  0  0
 29 31  2  0  0  0
 31 32  1  0  0  0
 31 33  1  0  0  0
M  END
> <minimizedAffinity>
-9.39442

$$$$
