CHEMBL1988692


 23 25  0  0  0  0  0  0  0  0999 V2000
  -29.7759   -8.9430   -8.8848 C   0  0  0  0  0  0  0  0  0  0  0  0
  -30.9134   -9.5838   -8.7016 N   0  0  0  0  0  0  0  0  0  0  0  0
  -31.5411   -9.0038   -7.6321 N   0  0  0  0  0  0  0  0  0  0  0  0
  -30.8341   -7.9990   -7.0153 C   0  0  0  0  0  0  0  0  0  0  0  0
  -31.0997   -7.4406   -5.9684 O   0  0  0  0  0  0  0  0  0  0  0  0
  -29.6555   -7.8184   -7.8991 C   0  0  0  0  0  0  0  0  0  0  0  0
  -28.7408   -6.8359   -7.9609 C   0  0  0  0  0  0  0  0  0  0  0  0
  -32.4022   -9.3885   -7.2653 H   0  0  0  0  0  0  0  0  0  0  0  0
  -28.7361   -5.6493   -7.1729 C   0  0  0  0  0  0  0  0  0  0  0  0
  -29.1095   -4.3433   -7.4466 C   0  0  0  0  0  0  0  0  0  0  0  0
  -29.0357   -3.5921   -6.2366 C   0  0  0  0  0  0  0  0  0  0  0  0
  -29.3719   -2.2769   -5.8605 C   0  0  0  0  0  0  0  0  0  0  0  0
  -29.2067   -1.8816   -4.5246 C   0  0  0  0  0  0  0  0  0  0  0  0
  -28.7078   -2.7693   -3.5729 C   0  0  0  0  0  0  0  0  0  0  0  0
  -28.3580   -4.0736   -3.9264 C   0  0  0  0  0  0  0  0  0  0  0  0
  -28.5354   -4.4479   -5.2617 C   0  0  0  0  0  0  0  0  0  0  0  0
  -28.3083   -5.6588   -5.8677 N   0  0  0  0  0  0  0  0  0  0  0  0
  -28.0105   -6.4814   -5.3538 H   0  0  0  0  0  0  0  0  0  0  0  0
  -28.8692   -9.2957   -9.8564 N   0  0  0  0  0  0  0  0  0  0  0  0
  -28.3712   -8.5555  -10.3346 H   0  0  0  0  0  0  0  0  0  0  0  0
  -28.8828  -10.1872  -12.1107 C   0  0  0  0  0  0  0  0  0  0  0  0
  -29.0264  -10.5246  -10.6295 C   0  0  0  0  0  0  0  0  0  0  0  0
  -27.9817  -11.5479  -10.1988 C   0  0  0  0  0  0  0  0  0  0  0  0
 21 22  1  0  0  0
 22 23  1  0  0  0
 22 19  1  0  0  0
 19  1  1  0  0  0
 19 20  1  0  0  0
  1  2  2  0  0  0
  1  6  1  0  0  0
  2  3  1  0  0  0
  3  4  1  0  0  0
  3  8  1  0  0  0
  4  5  2  0  0  0
  4  6  1  0  0  0
  6  7  2  0  0  0
  7  9  1  0  0  0
  9 10  2  0  0  0
  9 17  1  0  0  0
 10 11  1  0  0  0
 11 12  1  0  0  0
 11 16  2  0  0  0
 12 13  2  0  0  0
 13 14  1  0  0  0
 14 15  2  0  0  0
 15 16  1  0  0  0
 16 17  1  0  0  0
 17 18  1  0  0  0
M  END
> <minimizedAffinity>
-7.69269

$$$$
