CHEMBL1289494


 34 37  0  0  0  0  0  0  0  0999 V2000
  -29.1091   -7.1899   -4.3393 C   0  0  0  0  0  0  0  0  0  0  0  0
  -27.9279   -6.5056   -4.6103 C   0  0  0  0  0  0  0  0  0  0  0  0
  -27.8863   -5.1131   -4.5490 C   0  0  0  0  0  0  0  0  0  0  0  0
  -28.9795   -4.3582   -4.1094 C   0  0  0  0  0  0  0  0  0  0  0  0
  -30.1635   -5.0577   -3.8079 C   0  0  0  0  0  0  0  0  0  0  0  0
  -31.5744   -4.2110   -3.2658 Cl  0  0  0  0  0  0  0  0  0  0  0  0
  -30.2277   -6.4626   -3.9230 C   0  0  0  0  0  0  0  0  0  0  0  0
  -28.8978   -2.9433   -3.9317 N   0  0  0  0  0  0  0  0  0  0  0  0
  -29.4013   -2.0071   -4.8141 C   0  0  0  0  0  0  0  0  0  0  0  0
  -30.0668   -2.2780   -5.8035 O   0  0  0  0  0  0  0  0  0  0  0  0
  -29.0479   -0.7077   -4.5048 N   0  0  0  0  0  0  0  0  0  0  0  0
  -28.3654   -2.6239   -3.1298 H   0  0  0  0  0  0  0  0  0  0  0  0
  -28.1473   -0.5441   -4.0793 H   0  0  0  0  0  0  0  0  0  0  0  0
  -29.4193    0.2949   -5.3960 C   0  0  0  0  0  0  0  0  0  0  0  0
  -30.6441    1.0085   -5.4257 C   0  0  0  0  0  0  0  0  0  0  0  0
  -30.6139    1.6945   -6.6095 C   0  0  0  0  0  0  0  0  0  0  0  0
  -31.6020    2.5135   -7.3315 C   0  0  0  0  0  0  0  0  0  0  0  0
  -29.4040    1.5020   -7.2015 O   0  0  0  0  0  0  0  0  0  0  0  0
  -28.6265    0.6666   -6.4071 N   0  0  0  0  0  0  0  0  0  0  0  0
  -29.2313   -8.5664   -4.4503 O   0  0  0  0  0  0  0  0  0  0  0  0
  -24.7247  -10.6878   -5.5695 C   0  0  0  0  0  0  0  0  0  0  0  0
  -25.5356  -10.6819   -6.7153 C   0  0  0  0  0  0  0  0  0  0  0  0
  -26.8405  -10.2131   -6.7065 C   0  0  0  0  0  0  0  0  0  0  0  0
  -27.5003  -10.1906   -7.8746 N   0  0  0  0  0  0  0  0  0  0  0  0
  -28.7570   -9.7094   -7.8876 C   0  0  0  0  0  0  0  0  0  0  0  0
  -29.3979   -9.2211   -6.7714 C   0  0  0  0  0  0  0  0  0  0  0  0
  -28.6869   -9.1822   -5.5712 C   0  0  0  0  0  0  0  0  0  0  0  0
  -27.3942   -9.7531   -5.4984 C   0  0  0  0  0  0  0  0  0  0  0  0
  -26.6243   -9.8777   -4.3194 C   0  0  0  0  0  0  0  0  0  0  0  0
  -25.2982  -10.3457   -4.3399 C   0  0  0  0  0  0  0  0  0  0  0  0
  -22.5676  -10.1435   -6.3946 C   0  0  0  0  0  0  0  0  0  0  0  0
  -23.4001  -11.0369   -5.6449 O   0  0  0  0  0  0  0  0  0  0  0  0
  -24.7447  -10.3761   -3.0896 O   0  0  0  0  0  0  0  0  0  0  0  0
  -24.6404  -11.6087   -2.3947 C   0  0  0  0  0  0  0  0  0  0  0  0
 31 32  1  0  0  0
 32 21  1  0  0  0
 21 22  1  0  0  0
 21 30  2  0  0  0
 22 23  2  0  0  0
 23 24  1  0  0  0
 23 28  1  0  0  0
 24 25  2  0  0  0
 25 26  1  0  0  0
 26 27  2  0  0  0
 27 20  1  0  0  0
 27 28  1  0  0  0
 20  1  1  0  0  0
  1  2  1  0  0  0
  1  7  2  0  0  0
  2  3  2  0  0  0
  3  4  1  0  0  0
  4  8  1  0  0  0
  4  5  2  0  0  0
  8  9  1  0  0  0
  8 12  1  0  0  0
  9 10  2  0  0  0
  9 11  1  0  0  0
 11 14  1  0  0  0
 11 13  1  0  0  0
 14 15  1  0  0  0
 14 19  2  0  0  0
 15 16  2  0  0  0
 16 17  1  0  0  0
 16 18  1  0  0  0
 18 19  1  0  0  0
  5  6  1  0  0  0
  5  7  1  0  0  0
 28 29  2  0  0  0
 29 30  1  0  0  0
 30 33  1  0  0  0
 33 34  1  0  0  0
M  END
> <minimizedAffinity>
-8.33996

$$$$
