CHEMBL245800


 33 37  0  0  0  0  0  0  0  0999 V2000
  -29.4168   -2.1695   -5.3140 C   0  0  0  0  0  0  0  0  0  0  0  0
  -29.5631   -2.7074   -4.0432 C   0  0  0  0  0  0  0  0  0  0  0  0
  -29.6836   -4.0233   -3.7820 N   0  0  0  0  0  0  0  0  0  0  0  0
  -29.6109   -4.8701   -4.8110 C   0  0  0  0  0  0  0  0  0  0  0  0
  -29.6129   -6.2171   -4.4946 C   0  0  0  0  0  0  0  0  0  0  0  0
  -29.5045   -7.2046   -5.4730 C   0  0  0  0  0  0  0  0  0  0  0  0
  -29.4046   -6.8665   -6.8243 C   0  0  0  0  0  0  0  0  0  0  0  0
  -29.4212   -5.4909   -7.1442 C   0  0  0  0  0  0  0  0  0  0  0  0
  -29.5038   -4.4548   -6.1619 C   0  0  0  0  0  0  0  0  0  0  0  0
  -29.4567   -3.0326   -6.4204 C   0  0  0  0  0  0  0  0  0  0  0  0
  -29.2454   -7.9170   -7.8547 C   0  0  0  0  0  0  0  0  0  0  0  0
  -28.0462   -8.0649   -8.5780 C   0  0  0  0  0  0  0  0  0  0  0  0
  -27.8959   -9.0683   -9.5473 C   0  0  0  0  0  0  0  0  0  0  0  0
  -28.9467   -9.9438   -9.8340 C   0  0  0  0  0  0  0  0  0  0  0  0
  -30.1492   -9.7949   -9.1353 C   0  0  0  0  0  0  0  0  0  0  0  0
  -30.2885   -8.8028   -8.1605 C   0  0  0  0  0  0  0  0  0  0  0  0
  -28.8086  -11.0105  -10.8906 C   0  0  0  0  0  0  0  0  0  0  0  0
  -29.1827  -10.5109  -12.2100 N   0  0  0  0  0  0  0  0  0  0  0  0
  -30.1506  -10.1940  -12.1771 H   0  0  0  0  0  0  0  0  0  0  0  0
  -29.1499  -11.2756  -12.8804 H   0  0  0  0  0  0  0  0  0  0  0  0
  -28.8119    0.3392   -5.4972 N   0  0  0  0  0  0  0  0  0  0  0  0
  -29.1143   -0.7777   -5.3932 C   0  0  0  0  0  0  0  0  0  0  0  0
  -29.3232   -2.5553   -7.7727 N   0  0  0  0  0  0  0  0  0  0  0  0
  -29.8069   -1.6694   -7.8814 H   0  0  0  0  0  0  0  0  0  0  0  0
  -28.0177   -2.5379   -8.5102 C   0  0  0  0  0  0  0  0  0  0  0  0
  -27.1443   -1.3237   -8.4699 C   0  0  0  0  0  0  0  0  0  0  0  0
  -27.9197   -1.6382   -9.7312 C   0  0  0  0  0  0  0  0  0  0  0  0
  -27.0994   -1.7218  -11.0022 C   0  0  0  0  0  0  0  0  0  0  0  0
  -27.6008   -1.9227  -12.2967 C   0  0  0  0  0  0  0  0  0  0  0  0
  -26.7794   -1.7548  -13.4281 C   0  0  0  0  0  0  0  0  0  0  0  0
  -25.4407   -1.3891  -13.2857 C   0  0  0  0  0  0  0  0  0  0  0  0
  -24.9073   -1.2296  -12.0146 C   0  0  0  0  0  0  0  0  0  0  0  0
  -25.7265   -1.4050  -10.8988 C   0  0  0  0  0  0  0  0  0  0  0  0
 21 22  3  0  0  0
 22  1  1  0  0  0
  1  2  1  0  0  0
  1 10  2  0  0  0
  2  3  2  0  0  0
  3  4  1  0  0  0
  4  5  1  0  0  0
  4  9  2  0  0  0
  5  6  2  0  0  0
  6  7  1  0  0  0
  7 11  1  0  0  0
  7  8  2  0  0  0
 11 12  1  0  0  0
 11 16  2  0  0  0
 12 13  2  0  0  0
 13 14  1  0  0  0
 14 17  1  0  0  0
 14 15  2  0  0  0
 17 18  1  0  0  0
 18 19  1  0  0  0
 18 20  1  0  0  0
 15 16  1  0  0  0
  8  9  1  0  0  0
  9 10  1  0  0  0
 10 23  1  0  0  0
 23 25  1  0  0  0
 23 24  1  0  0  0
 25 26  1  0  0  0
 25 27  1  0  0  0
 26 27  1  0  0  0
 27 28  1  0  0  0
 28 29  1  0  0  0
 28 33  2  0  0  0
 29 30  2  0  0  0
 30 31  1  0  0  0
 31 32  2  0  0  0
 32 33  1  0  0  0
M  END
> <minimizedAffinity>
-9.31134

$$$$
