CHEMBL489058


 40 44  0  0  0  0  0  0  0  0999 V2000
  -19.2755    1.8344  -15.0002 C   0  0  0  0  0  0  0  0  0  0  0  0
  -18.6647    0.5943  -15.1625 C   0  0  0  0  0  0  0  0  0  0  0  0
  -17.3081    0.5174  -15.4557 C   0  0  0  0  0  0  0  0  0  0  0  0
  -16.5285    1.6818  -15.6266 C   0  0  0  0  0  0  0  0  0  0  0  0
  -15.1393    1.6638  -15.9423 C   0  0  0  0  0  0  0  0  0  0  0  0
  -14.4936    2.8945  -16.1320 C   0  0  0  0  0  0  0  0  0  0  0  0
  -15.2176    4.0625  -15.9482 C   0  0  0  0  0  0  0  0  0  0  0  0
  -16.5209    4.1024  -15.6185 N   0  0  0  0  0  0  0  0  0  0  0  0
  -17.1616    2.9387  -15.4781 C   0  0  0  0  0  0  0  0  0  0  0  0
  -18.5067    2.9909  -15.1677 C   0  0  0  0  0  0  0  0  0  0  0  0
  -21.4846    1.0365  -14.1542 C   0  0  0  0  0  0  0  0  0  0  0  0
  -20.6862    1.9950  -14.6471 C   0  0  0  0  0  0  0  0  0  0  0  0
  -22.9343    1.2121  -13.8039 C   0  0  0  0  0  0  0  0  0  0  0  0
  -23.8336    0.0423  -14.2306 C   0  0  0  0  0  0  0  0  0  0  0  0
  -26.6137   -1.1053  -12.0172 N   0  0  0  0  0  0  0  0  0  0  0  0
  -26.3520   -1.5584  -13.4003 C   0  0  0  0  0  0  0  0  0  0  0  0
  -24.9132   -2.0769  -13.6177 C   0  0  0  0  0  0  0  0  0  0  0  0
  -23.8683   -1.0869  -13.2881 N   0  0  0  0  0  0  0  0  0  0  0  0
  -24.1144   -0.5679  -11.9192 C   0  0  0  0  0  0  0  0  0  0  0  0
  -25.5754   -0.1116  -11.6481 C   0  0  0  0  0  0  0  0  0  0  0  0
  -27.2412   -1.8431   -9.7013 C   0  0  0  0  0  0  0  0  0  0  0  0
  -26.6183   -2.2102  -11.0430 C   0  0  0  0  0  0  0  0  0  0  0  0
  -14.4777    0.4080  -16.0152 N   0  0  0  0  0  0  0  0  0  0  0  0
  -14.1639    0.1663  -16.9496 H   0  0  0  0  0  0  0  0  0  0  0  0
  -14.0623   -0.4931  -15.0194 C   0  0  0  0  0  0  0  0  0  0  0  0
  -12.8995   -1.2595  -15.1288 C   0  0  0  0  0  0  0  0  0  0  0  0
  -12.6345   -2.2968  -14.2274 C   0  0  0  0  0  0  0  0  0  0  0  0
  -13.5039   -2.5633  -13.1626 C   0  0  0  0  0  0  0  0  0  0  0  0
  -14.6090   -1.7197  -12.9820 C   0  0  0  0  0  0  0  0  0  0  0  0
  -15.7130   -1.9041  -11.6602 Cl  0  0  0  0  0  0  0  0  0  0  0  0
  -14.8863   -0.7023  -13.9070 C   0  0  0  0  0  0  0  0  0  0  0  0
  -13.2655   -4.0714  -12.2311 S   0  0  0  0  0  0  0  0  0  0  0  0
  -14.0284   -5.2269  -13.2684 C   0  0  0  0  0  0  0  0  0  0  0  0
  -13.5330   -5.7444  -14.3705 N   0  0  0  0  0  0  0  0  0  0  0  0
  -14.5066   -6.5851  -14.8454 C   0  0  0  0  0  0  0  0  0  0  0  0
  -15.6089   -6.5735  -14.0238 C   0  0  0  0  0  0  0  0  0  0  0  0
  -15.2993   -5.6854  -13.0278 N   0  0  0  0  0  0  0  0  0  0  0  0
  -16.1758   -5.3210  -11.9405 C   0  0  0  0  0  0  0  0  0  0  0  0
  -13.1556    3.0381  -16.6174 C   0  0  0  0  0  0  0  0  0  0  0  0
  -12.0953    3.1806  -17.0594 N   0  0  0  0  0  0  0  0  0  0  0  0
 21 22  1  0  0  0
 22 15  1  0  0  0
 15 16  1  0  0  0
 15 20  1  0  0  0
 16 17  1  0  0  0
 17 18  1  0  0  0
 18 14  1  0  0  0
 18 19  1  0  0  0
 14 13  1  0  0  0
 13 11  1  0  0  0
 11 12  2  0  0  0
 12  1  1  0  0  0
  1  2  1  0  0  0
  1 10  2  0  0  0
  2  3  2  0  0  0
  3  4  1  0  0  0
  4  5  1  0  0  0
  4  9  2  0  0  0
  5 23  1  0  0  0
  5  6  2  0  0  0
 23 25  1  0  0  0
 23 24  1  0  0  0
 25 26  1  0  0  0
 25 31  2  0  0  0
 26 27  2  0  0  0
 27 28  1  0  0  0
 28 32  1  0  0  0
 28 29  2  0  0  0
 32 33  1  0  0  0
 33 34  2  0  0  0
 33 37  1  0  0  0
 34 35  1  0  0  0
 35 36  2  0  0  0
 36 37  1  0  0  0
 37 38  1  0  0  0
 29 30  1  0  0  0
 29 31  1  0  0  0
  6 39  1  0  0  0
  6  7  1  0  0  0
 39 40  3  0  0  0
  7  8  2  0  0  0
  8  9  1  0  0  0
  9 10  1  0  0  0
 19 20  1  0  0  0
M  END
> <minimizedAffinity>
-9.04283

$$$$
