CHEMBL4080062


 34 37  0  0  0  0  0  0  0  0999 V2000
  -23.5258   -0.5014  -13.2296 C   0  0  0  0  0  0  0  0  0  0  0  0
  -22.6448   -1.0213  -12.2839 C   0  0  0  0  0  0  0  0  0  0  0  0
  -23.1870   -1.8421  -11.4097 C   0  0  0  0  0  0  0  0  0  0  0  0
  -24.5165   -2.0936  -11.5370 C   0  0  0  0  0  0  0  0  0  0  0  0
  -25.3116   -1.1250  -12.1383 C   0  0  0  0  0  0  0  0  0  0  0  0
  -26.5631   -0.6421  -11.5515 C   0  0  0  0  0  0  0  0  0  0  0  0
  -27.2173   -1.6547  -11.0382 C   0  0  0  0  0  0  0  0  0  0  0  0
  -27.5640   -2.1177  -12.2744 C   0  0  0  0  0  0  0  0  0  0  0  0
  -26.5515   -1.6337  -13.5380 C   0  0  0  0  0  0  0  0  0  0  0  0
  -25.0375   -1.0579  -13.4053 C   0  0  0  0  0  0  0  0  0  0  0  0
  -22.7771    0.3580  -15.2569 O   0  0  0  0  0  0  0  0  0  0  0  0
  -22.6339    0.3553  -14.0248 C   0  0  0  0  0  0  0  0  0  0  0  0
  -21.5608    0.9744  -13.4468 N   0  0  0  0  0  0  0  0  0  0  0  0
  -21.4538    1.0322  -12.4455 H   0  0  0  0  0  0  0  0  0  0  0  0
  -20.6280    1.6123  -14.2934 C   0  0  0  0  0  0  0  0  0  0  0  0
  -20.8443    2.9619  -14.6161 C   0  0  0  0  0  0  0  0  0  0  0  0
  -19.8823    3.7261  -15.2480 C   0  0  0  0  0  0  0  0  0  0  0  0
  -18.6779    3.1448  -15.5769 C   0  0  0  0  0  0  0  0  0  0  0  0
  -18.4318    1.8061  -15.2399 C   0  0  0  0  0  0  0  0  0  0  0  0
  -19.4436    1.0061  -14.6779 C   0  0  0  0  0  0  0  0  0  0  0  0
  -17.0290    1.2927  -15.3451 C   0  0  0  0  0  0  0  0  0  0  0  0
  -16.9753   -0.0495  -15.1161 F   0  0  0  0  0  0  0  0  0  0  0  0
  -16.4785    1.5025  -16.5651 F   0  0  0  0  0  0  0  0  0  0  0  0
  -16.1843    1.8522  -14.4340 F   0  0  0  0  0  0  0  0  0  0  0  0
  -26.9480   -2.1910   -9.7886 O   0  0  0  0  0  0  0  0  0  0  0  0
  -27.9318   -2.0600   -8.6654 C   0  0  0  0  0  0  0  0  0  0  0  0
  -27.8386   -1.0248   -7.6922 C   0  0  0  0  0  0  0  0  0  0  0  0
  -28.2795   -1.2239   -6.3646 C   0  0  0  0  0  0  0  0  0  0  0  0
  -28.9743   -2.3744   -6.0743 N   0  0  0  0  0  0  0  0  0  0  0  0
  -29.0232   -3.3383   -7.0568 C   0  0  0  0  0  0  0  0  0  0  0  0
  -28.5627   -3.2239   -8.3351 N   0  0  0  0  0  0  0  0  0  0  0  0
  -27.4847   -0.4137   -5.1936 C   0  0  0  0  0  0  0  0  0  0  0  0
  -27.7948    0.9996   -5.1004 O   0  0  0  0  0  0  0  0  0  0  0  0
  -27.3851    1.4527   -5.8612 H   0  0  0  0  0  0  0  0  0  0  0  0
 11 12  2  0  0  0
 12 13  1  0  0  0
 12  1  1  0  0  0
 13 15  1  0  0  0
 13 14  1  0  0  0
 15 16  1  0  0  0
 15 20  2  0  0  0
 16 17  2  0  0  0
 17 18  1  0  0  0
 18 19  2  0  0  0
 19 21  1  0  0  0
 19 20  1  0  0  0
 21 22  1  0  0  0
 21 23  1  0  0  0
 21 24  1  0  0  0
  1  2  1  0  0  0
  1 10  2  0  0  0
  2  3  2  0  0  0
  3  4  1  0  0  0
  4  5  2  0  0  0
  5  6  1  0  0  0
  5 10  1  0  0  0
  6  7  2  0  0  0
  7 25  1  0  0  0
  7  8  1  0  0  0
 25 26  1  0  0  0
 26 27  1  0  0  0
 26 31  2  0  0  0
 27 28  2  0  0  0
 28 32  1  0  0  0
 28 29  1  0  0  0
 32 33  1  0  0  0
 33 34  1  0  0  0
 29 30  2  0  0  0
 30 31  1  0  0  0
  8  9  2  0  0  0
  9 10  1  0  0  0
M  END
> <minimizedAffinity>
-11.28217

$$$$
