CHEMBL213195


 26 30  0  0  0  0  0  0  0  0999 V2000
  -22.2674    1.2111  -13.9939 C   0  0  0  0  0  0  0  0  0  0  0  0
  -22.1614    2.6281  -13.9367 C   0  0  0  0  0  0  0  0  0  0  0  0
  -21.0207    3.3012  -14.3713 C   0  0  0  0  0  0  0  0  0  0  0  0
  -19.9748    2.5283  -14.8027 C   0  0  0  0  0  0  0  0  0  0  0  0
  -20.0100    1.1077  -14.8086 C   0  0  0  0  0  0  0  0  0  0  0  0
  -21.1687    0.4451  -14.4253 C   0  0  0  0  0  0  0  0  0  0  0  0
  -18.6667    0.4781  -15.2346 C   0  0  0  0  0  0  0  0  0  0  0  0
  -17.9290    1.7514  -15.4845 C   0  0  0  0  0  0  0  0  0  0  0  0
  -16.6571    2.2463  -15.8193 C   0  0  0  0  0  0  0  0  0  0  0  0
  -16.6568    3.5958  -15.8394 N   0  0  0  0  0  0  0  0  0  0  0  0
  -17.9155    3.9476  -15.4888 N   0  0  0  0  0  0  0  0  0  0  0  0
  -18.6779    2.8694  -15.2573 C   0  0  0  0  0  0  0  0  0  0  0  0
  -18.1507    4.9328  -15.4146 H   0  0  0  0  0  0  0  0  0  0  0  0
  -15.4255    1.4404  -16.0957 C   0  0  0  0  0  0  0  0  0  0  0  0
  -14.8162    1.3666  -17.3315 C   0  0  0  0  0  0  0  0  0  0  0  0
  -13.6650    0.5249  -17.3146 C   0  0  0  0  0  0  0  0  0  0  0  0
  -13.4431   -0.0161  -16.0679 C   0  0  0  0  0  0  0  0  0  0  0  0
  -14.5943    0.5160  -14.9246 S   0  0  0  0  0  0  0  0  0  0  0  0
  -23.5709    0.5440  -13.5843 C   0  0  0  0  0  0  0  0  0  0  0  0
  -26.6300   -1.7969  -10.7192 C   0  0  0  0  0  0  0  0  0  0  0  0
  -25.6003   -1.9839  -11.7364 N   0  0  0  0  0  0  0  0  0  0  0  0
  -25.9837   -1.3370  -13.0015 C   0  0  0  0  0  0  0  0  0  0  0  0
  -24.8798   -1.5083  -14.0691 C   0  0  0  0  0  0  0  0  0  0  0  0
  -23.5731   -0.9287  -13.6857 N   0  0  0  0  0  0  0  0  0  0  0  0
  -23.1966   -1.5426  -12.3868 C   0  0  0  0  0  0  0  0  0  0  0  0
  -24.2896   -1.4795  -11.2820 C   0  0  0  0  0  0  0  0  0  0  0  0
 20 21  1  0  0  0
 21 22  1  0  0  0
 21 26  1  0  0  0
 22 23  1  0  0  0
 23 24  1  0  0  0
 24 19  1  0  0  0
 24 25  1  0  0  0
 19  1  1  0  0  0
  1  2  1  0  0  0
  1  6  2  0  0  0
  2  3  2  0  0  0
  3  4  1  0  0  0
  4  5  2  0  0  0
  4 12  1  0  0  0
  5  6  1  0  0  0
  5  7  1  0  0  0
  7  8  1  0  0  0
  8  9  1  0  0  0
  8 12  2  0  0  0
  9 14  1  0  0  0
  9 10  2  0  0  0
 14 15  2  0  0  0
 14 18  1  0  0  0
 15 16  1  0  0  0
 16 17  2  0  0  0
 17 18  1  0  0  0
 10 11  1  0  0  0
 11 12  1  0  0  0
 11 13  1  0  0  0
 25 26  1  0  0  0
M  END
> <minimizedAffinity>
-9.92716

$$$$
