CHEMBL2088098


 24 26  0  0  0  0  0  0  0  0999 V2000
  -25.6386   -1.6770  -11.8381 C   0  0  0  0  0  0  0  0  0  0  0  0
  -26.5457   -1.9102  -12.7886 N   0  0  0  0  0  0  0  0  0  0  0  0
  -26.1636   -1.6852  -14.0581 C   0  0  0  0  0  0  0  0  0  0  0  0
  -24.9205   -1.2160  -14.4015 C   0  0  0  0  0  0  0  0  0  0  0  0
  -24.0453   -1.0011  -13.3571 C   0  0  0  0  0  0  0  0  0  0  0  0
  -24.4044   -1.2321  -12.0798 N   0  0  0  0  0  0  0  0  0  0  0  0
  -26.0400   -1.9798  -10.5506 N   0  0  0  0  0  0  0  0  0  0  0  0
  -25.7172   -2.9227  -10.3611 H   0  0  0  0  0  0  0  0  0  0  0  0
  -27.4359   -1.7447  -10.2384 C   0  0  0  0  0  0  0  0  0  0  0  0
  -29.1191   -3.6833   -5.8244 C   0  0  0  0  0  0  0  0  0  0  0  0
  -28.4551   -2.9199   -6.9040 C   0  0  0  0  0  0  0  0  0  0  0  0
  -28.5285   -3.1367   -8.2955 C   0  0  0  0  0  0  0  0  0  0  0  0
  -27.7518   -2.1418   -8.8379 C   0  0  0  0  0  0  0  0  0  0  0  0
  -27.2339   -1.3819   -7.8360 O   0  0  0  0  0  0  0  0  0  0  0  0
  -27.6733   -1.8705   -6.6153 N   0  0  0  0  0  0  0  0  0  0  0  0
  -22.7317   -0.5853  -13.6582 N   0  0  0  0  0  0  0  0  0  0  0  0
  -22.2220   -1.2940  -14.1719 H   0  0  0  0  0  0  0  0  0  0  0  0
  -22.3430    0.6821  -13.9071 C   0  0  0  0  0  0  0  0  0  0  0  0
  -21.0855    1.0377  -14.4484 C   0  0  0  0  0  0  0  0  0  0  0  0
  -21.0900    2.4098  -14.5250 C   0  0  0  0  0  0  0  0  0  0  0  0
  -20.0533    3.3649  -14.9636 C   0  0  0  0  0  0  0  0  0  0  0  0
  -22.3228    2.7877  -14.0718 N   0  0  0  0  0  0  0  0  0  0  0  0
  -23.1152    1.7560  -13.7288 N   0  0  0  0  0  0  0  0  0  0  0  0
  -22.6912    3.7277  -13.9722 H   0  0  0  0  0  0  0  0  0  0  0  0
 10 11  1  0  0  0
 11 12  1  0  0  0
 11 15  2  0  0  0
 12 13  2  0  0  0
 13  9  1  0  0  0
 13 14  1  0  0  0
  9  7  1  0  0  0
  7  1  1  0  0  0
  7  8  1  0  0  0
  1  2  1  0  0  0
  1  6  2  0  0  0
  2  3  2  0  0  0
  3  4  1  0  0  0
  4  5  2  0  0  0
  5 16  1  0  0  0
  5  6  1  0  0  0
 16 18  1  0  0  0
 16 17  1  0  0  0
 18 19  1  0  0  0
 18 23  2  0  0  0
 19 20  2  0  0  0
 20 21  1  0  0  0
 20 22  1  0  0  0
 22 23  1  0  0  0
 22 24  1  0  0  0
 14 15  1  0  0  0
M  END
> <minimizedAffinity>
-8.47804

$$$$
