CHEMBL2087875


 38 43  0  0  0  0  0  0  0  0999 V2000
  -25.6776   11.9682  -14.0578 C   0  0  0  0  0  0  0  0  0  0  0  0
  -24.3950   12.0656  -14.6157 C   0  0  0  0  0  0  0  0  0  0  0  0
  -23.5437   12.3757  -13.5747 N   0  0  0  0  0  0  0  0  0  0  0  0
  -24.2053   12.4188  -12.3948 C   0  0  0  0  0  0  0  0  0  0  0  0
  -23.6044   12.6417  -11.2144 N   0  0  0  0  0  0  0  0  0  0  0  0
  -24.4900   12.6291  -10.2117 C   0  0  0  0  0  0  0  0  0  0  0  0
  -25.8180   12.4524  -10.2863 N   0  0  0  0  0  0  0  0  0  0  0  0
  -26.4019   12.2867  -11.5014 C   0  0  0  0  0  0  0  0  0  0  0  0
  -25.5548   12.2136  -12.6345 C   0  0  0  0  0  0  0  0  0  0  0  0
  -22.5476   12.5194  -13.6558 H   0  0  0  0  0  0  0  0  0  0  0  0
  -29.1285   10.9475  -16.3738 C   0  0  0  0  0  0  0  0  0  0  0  0
  -28.1444    9.9963  -16.1223 C   0  0  0  0  0  0  0  0  0  0  0  0
  -27.0065   10.3433  -15.3901 C   0  0  0  0  0  0  0  0  0  0  0  0
  -26.8743   11.6196  -14.8313 C   0  0  0  0  0  0  0  0  0  0  0  0
  -27.8891   12.5593  -15.0695 C   0  0  0  0  0  0  0  0  0  0  0  0
  -28.9903   12.2361  -15.8664 C   0  0  0  0  0  0  0  0  0  0  0  0
  -23.8683   11.9056  -15.9796 C   0  0  0  0  0  0  0  0  0  0  0  0
  -24.5185   12.5170  -17.0536 C   0  0  0  0  0  0  0  0  0  0  0  0
  -24.0548   12.3494  -18.3608 C   0  0  0  0  0  0  0  0  0  0  0  0
  -22.9223   11.5676  -18.6232 C   0  0  0  0  0  0  0  0  0  0  0  0
  -22.2848   10.9312  -17.5642 C   0  0  0  0  0  0  0  0  0  0  0  0
  -22.7330   11.1245  -16.2512 C   0  0  0  0  0  0  0  0  0  0  0  0
  -22.3886   11.3732  -19.8810 O   0  0  0  0  0  0  0  0  0  0  0  0
  -21.7631   12.5555  -20.3808 C   0  0  0  0  0  0  0  0  0  0  0  0
  -20.3546   12.3260  -20.9450 C   0  0  0  0  0  0  0  0  0  0  0  0
  -19.6920   11.2296  -20.2089 N   0  0  0  0  0  0  0  0  0  0  0  0
  -18.6881   11.6734  -19.2294 C   0  0  0  0  0  0  0  0  0  0  0  0
  -17.3746   11.6750  -19.9752 C   0  0  0  0  0  0  0  0  0  0  0  0
  -17.5001   10.4746  -20.8887 C   0  0  0  0  0  0  0  0  0  0  0  0
  -18.9996   10.2862  -21.0984 C   0  0  0  0  0  0  0  0  0  0  0  0
  -27.7865   12.2628  -11.5680 N   0  0  0  0  0  0  0  0  0  0  0  0
  -28.1700   11.8875  -12.4258 H   0  0  0  0  0  0  0  0  0  0  0  0
  -28.5105   11.8856  -10.3543 C   0  0  0  0  0  0  0  0  0  0  0  0
  -29.8462   12.6498  -10.2073 C   0  0  0  0  0  0  0  0  0  0  0  0
  -30.6801   12.2670   -8.6187 S   0  0  0  0  0  0  0  0  0  0  0  0
  -32.3579   12.1534   -9.2876 C   0  0  0  0  0  0  0  0  0  0  0  0
  -32.2676   11.4594  -10.6302 C   0  0  0  0  0  0  0  0  0  0  0  0
  -31.0014   12.3221  -11.5941 S   0  0  0  0  0  0  0  0  0  0  0  0
 11 12  1  0  0  0
 11 16  2  0  0  0
 12 13  2  0  0  0
 13 14  1  0  0  0
 14  1  1  0  0  0
 14 15  2  0  0  0
  1  2  2  0  0  0
  1  9  1  0  0  0
  2 17  1  0  0  0
  2  3  1  0  0  0
 17 18  1  0  0  0
 17 22  2  0  0  0
 18 19  2  0  0  0
 19 20  1  0  0  0
 20 23  1  0  0  0
 20 21  2  0  0  0
 23 24  1  0  0  0
 24 25  1  0  0  0
 25 26  1  0  0  0
 26 27  1  0  0  0
 26 30  1  0  0  0
 27 28  1  0  0  0
 28 29  1  0  0  0
 29 30  1  0  0  0
 21 22  1  0  0  0
  3  4  1  0  0  0
  3 10  1  0  0  0
  4  5  1  0  0  0
  4  9  2  0  0  0
  5  6  2  0  0  0
  6  7  1  0  0  0
  7  8  2  0  0  0
  8 31  1  0  0  0
  8  9  1  0  0  0
 31 33  1  0  0  0
 31 32  1  0  0  0
 33 34  1  0  0  0
 34 35  1  0  0  0
 34 38  1  0  0  0
 35 36  1  0  0  0
 36 37  1  0  0  0
 37 38  1  0  0  0
 15 16  1  0  0  0
M  END
> <minimizedAffinity>
-5.94088

$$$$
