CHEMBL595142


 42 47  0  0  0  0  0  0  0  0999 V2000
  -26.1595  -10.7838   -6.5989 C   0  0  0  0  0  0  0  0  0  0  0  0
  -26.7440  -10.3065   -5.4335 C   0  0  0  0  0  0  0  0  0  0  0  0
  -27.9249  -10.8464   -4.9076 C   0  0  0  0  0  0  0  0  0  0  0  0
  -28.5317  -10.3447   -3.7514 C   0  0  0  0  0  0  0  0  0  0  0  0
  -29.6351  -10.9224   -3.2478 N   0  0  0  0  0  0  0  0  0  0  0  0
  -30.1373  -11.9596   -3.9254 C   0  0  0  0  0  0  0  0  0  0  0  0
  -29.6697  -12.4650   -5.0733 N   0  0  0  0  0  0  0  0  0  0  0  0
  -28.5596  -11.9015   -5.5639 C   0  0  0  0  0  0  0  0  0  0  0  0
  -28.0075  -12.3565   -6.7574 C   0  0  0  0  0  0  0  0  0  0  0  0
  -26.8089  -11.8320   -7.2820 C   0  0  0  0  0  0  0  0  0  0  0  0
  -23.7364  -10.5975   -6.5385 C   0  0  0  0  0  0  0  0  0  0  0  0
  -25.0051  -10.2346   -7.0919 O   0  0  0  0  0  0  0  0  0  0  0  0
  -28.0392   -9.1504   -3.1501 N   0  0  0  0  0  0  0  0  0  0  0  0
  -28.1304   -9.1318   -2.1396 H   0  0  0  0  0  0  0  0  0  0  0  0
  -28.1845   -7.8652   -3.7120 C   0  0  0  0  0  0  0  0  0  0  0  0
  -29.4629   -7.3179   -3.8479 C   0  0  0  0  0  0  0  0  0  0  0  0
  -29.6299   -5.9879   -4.2174 C   0  0  0  0  0  0  0  0  0  0  0  0
  -28.5265   -5.1667   -4.4824 C   0  0  0  0  0  0  0  0  0  0  0  0
  -27.2426   -5.7427   -4.4605 C   0  0  0  0  0  0  0  0  0  0  0  0
  -27.0811   -7.0784   -4.0691 C   0  0  0  0  0  0  0  0  0  0  0  0
  -25.8288   -7.6318   -3.9682 O   0  0  0  0  0  0  0  0  0  0  0  0
  -25.1800   -6.9071   -3.9979 H   0  0  0  0  0  0  0  0  0  0  0  0
  -28.7063   -3.7252   -4.7272 C   0  0  0  0  0  0  0  0  0  0  0  0
  -27.7850   -2.7973   -4.5588 N   0  0  0  0  0  0  0  0  0  0  0  0
  -28.3014   -1.5506   -4.8753 C   0  0  0  0  0  0  0  0  0  0  0  0
  -27.6001   -0.3196   -4.8620 C   0  0  0  0  0  0  0  0  0  0  0  0
  -28.2661    0.8611   -5.2068 C   0  0  0  0  0  0  0  0  0  0  0  0
  -29.6069    0.8419   -5.5619 C   0  0  0  0  0  0  0  0  0  0  0  0
  -30.3262   -0.3451   -5.5895 C   0  0  0  0  0  0  0  0  0  0  0  0
  -29.6501   -1.5382   -5.2457 C   0  0  0  0  0  0  0  0  0  0  0  0
  -30.2589   -3.1257   -5.1960 S   0  0  0  0  0  0  0  0  0  0  0  0
  -26.4189  -12.4641   -8.4458 O   0  0  0  0  0  0  0  0  0  0  0  0
  -27.3832  -12.4420   -9.4952 C   0  0  0  0  0  0  0  0  0  0  0  0
  -27.5913  -11.0313  -10.0504 C   0  0  0  0  0  0  0  0  0  0  0  0
  -29.0993  -10.7177  -10.1183 C   0  0  0  0  0  0  0  0  0  0  0  0
  -29.7237  -10.5929   -8.7911 N   0  0  0  0  0  0  0  0  0  0  0  0
  -29.8331   -9.1927   -8.3473 C   0  0  0  0  0  0  0  0  0  0  0  0
  -30.4540   -9.0892   -6.9399 C   0  0  0  0  0  0  0  0  0  0  0  0
  -31.7934   -9.6939   -6.8255 N   0  0  0  0  0  0  0  0  0  0  0  0
  -32.7933   -8.8949   -7.5310 C   0  0  0  0  0  0  0  0  0  0  0  0
  -31.7346  -11.0775   -7.3439 C   0  0  0  0  0  0  0  0  0  0  0  0
  -31.0439  -11.2482   -8.7259 C   0  0  0  0  0  0  0  0  0  0  0  0
 11 12  1  0  0  0
 12  1  1  0  0  0
  1  2  1  0  0  0
  1 10  2  0  0  0
  2  3  2  0  0  0
  3  4  1  0  0  0
  3  8  1  0  0  0
  4 13  1  0  0  0
  4  5  2  0  0  0
 13 15  1  0  0  0
 13 14  1  0  0  0
 15 16  1  0  0  0
 15 20  2  0  0  0
 16 17  2  0  0  0
 17 18  1  0  0  0
 18 23  1  0  0  0
 18 19  2  0  0  0
 23 24  2  0  0  0
 23 31  1  0  0  0
 24 25  1  0  0  0
 25 26  1  0  0  0
 25 30  2  0  0  0
 26 27  2  0  0  0
 27 28  1  0  0  0
 28 29  2  0  0  0
 29 30  1  0  0  0
 30 31  1  0  0  0
 19 20  1  0  0  0
 20 21  1  0  0  0
 21 22  1  0  0  0
  5  6  1  0  0  0
  6  7  2  0  0  0
  7  8  1  0  0  0
  8  9  2  0  0  0
  9 10  1  0  0  0
 10 32  1  0  0  0
 32 33  1  0  0  0
 33 34  1  0  0  0
 34 35  1  0  0  0
 35 36  1  0  0  0
 36 37  1  0  0  0
 36 42  1  0  0  0
 37 38  1  0  0  0
 38 39  1  0  0  0
 39 40  1  0  0  0
 39 41  1  0  0  0
 41 42  1  0  0  0
M  END
> <minimizedAffinity>
-7.62538

$$$$
