CHEMBL3977010


 43 47  0  0  0  0  0  0  0  0999 V2000
  -14.2433    1.7551  -16.6765 C   0  0  0  0  0  0  0  0  0  0  0  0
  -15.5864    2.0913  -16.5207 C   0  0  0  0  0  0  0  0  0  0  0  0
  -16.2438    1.7532  -15.3587 C   0  0  0  0  0  0  0  0  0  0  0  0
  -15.6810    0.9173  -14.4211 C   0  0  0  0  0  0  0  0  0  0  0  0
  -16.3519    0.8575  -13.2720 N   0  0  0  0  0  0  0  0  0  0  0  0
  -16.0176   -0.1209  -12.4183 C   0  0  0  0  0  0  0  0  0  0  0  0
  -15.1156   -1.1048  -12.7687 C   0  0  0  0  0  0  0  0  0  0  0  0
  -14.2800   -0.9286  -13.8587 N   0  0  0  0  0  0  0  0  0  0  0  0
  -14.5122    0.1799  -14.7069 C   0  0  0  0  0  0  0  0  0  0  0  0
  -13.7471    0.7117  -15.8313 C   0  0  0  0  0  0  0  0  0  0  0  0
  -15.3749   -2.4084  -12.1283 C   0  0  0  0  0  0  0  0  0  0  0  0
  -15.9308   -2.7901  -10.8895 C   0  0  0  0  0  0  0  0  0  0  0  0
  -16.1831   -4.1068  -10.8035 N   0  0  0  0  0  0  0  0  0  0  0  0
  -15.7954   -4.6112  -11.9979 N   0  0  0  0  0  0  0  0  0  0  0  0
  -15.4003   -3.6059  -12.8490 C   0  0  0  0  0  0  0  0  0  0  0  0
  -15.6075   -6.0650  -12.1343 C   0  0  0  0  0  0  0  0  0  0  0  0
  -14.2292   -6.6372  -11.7466 C   0  0  0  0  0  0  0  0  0  0  0  0
  -13.1830   -6.4723  -12.8440 C   0  0  0  0  0  0  0  0  0  0  0  0
  -13.6542   -6.9826  -14.1257 N   0  0  0  0  0  0  0  0  0  0  0  0
  -12.7484   -7.6671  -14.9335 C   0  0  0  0  0  0  0  0  0  0  0  0
  -11.6200   -7.9554  -14.5508 O   0  0  0  0  0  0  0  0  0  0  0  0
  -14.9466   -6.4788  -14.5804 C   0  0  0  0  0  0  0  0  0  0  0  0
  -16.0136   -6.6657  -13.5019 C   0  0  0  0  0  0  0  0  0  0  0  0
  -13.2346   -7.9911  -16.1675 O   0  0  0  0  0  0  0  0  0  0  0  0
  -12.6482   -7.3767  -17.3555 C   0  0  0  0  0  0  0  0  0  0  0  0
  -11.4687   -8.1999  -17.8959 C   0  0  0  0  0  0  0  0  0  0  0  0
  -13.7474   -7.3736  -18.4345 C   0  0  0  0  0  0  0  0  0  0  0  0
  -12.2557   -5.9162  -17.0896 C   0  0  0  0  0  0  0  0  0  0  0  0
  -13.4966    2.6928  -17.4902 N   0  0  0  0  0  0  0  0  0  0  0  0
  -12.9960    6.4164  -17.6774 C   0  0  0  0  0  0  0  0  0  0  0  0
  -12.3828    6.6710  -16.4502 C   0  0  0  0  0  0  0  0  0  0  0  0
  -12.1034    5.6184  -15.5846 C   0  0  0  0  0  0  0  0  0  0  0  0
  -12.4304    4.3067  -15.9542 C   0  0  0  0  0  0  0  0  0  0  0  0
  -13.0260    3.9965  -17.1877 C   0  0  0  0  0  0  0  0  0  0  0  0
  -13.2987    5.0845  -18.0442 C   0  0  0  0  0  0  0  0  0  0  0  0
  -14.7526    7.4805  -18.9100 C   0  0  0  0  0  0  0  0  0  0  0  0
  -13.3651    7.3958  -18.5697 O   0  0  0  0  0  0  0  0  0  0  0  0
  -11.5443    5.7377  -14.3398 O   0  0  0  0  0  0  0  0  0  0  0  0
  -11.1373    7.0407  -13.9373 C   0  0  0  0  0  0  0  0  0  0  0  0
  -13.8590    2.4332  -18.9411 C   0  0  0  0  0  0  0  0  0  0  0  0
  -13.3169    1.1381  -19.5753 C   0  0  0  0  0  0  0  0  0  0  0  0
  -14.3633    0.2556  -19.9784 O   0  0  0  0  0  0  0  0  0  0  0  0
  -14.1775   -0.6089  -19.5719 H   0  0  0  0  0  0  0  0  0  0  0  0
 36 37  1  0  0  0
 37 30  1  0  0  0
 30 31  1  0  0  0
 30 35  2  0  0  0
 31 32  2  0  0  0
 32 38  1  0  0  0
 32 33  1  0  0  0
 38 39  1  0  0  0
 33 34  2  0  0  0
 34 29  1  0  0  0
 34 35  1  0  0  0
 29 40  1  0  0  0
 29  1  1  0  0  0
 40 41  1  0  0  0
 41 42  1  0  0  0
 42 43  1  0  0  0
  1  2  1  0  0  0
  1 10  2  0  0  0
  2  3  2  0  0  0
  3  4  1  0  0  0
  4  5  1  0  0  0
  4  9  2  0  0  0
  5  6  2  0  0  0
  6  7  1  0  0  0
  7 11  1  0  0  0
  7  8  2  0  0  0
 11 12  1  0  0  0
 11 15  2  0  0  0
 12 13  2  0  0  0
 13 14  1  0  0  0
 14 16  1  0  0  0
 14 15  1  0  0  0
 16 17  1  0  0  0
 16 23  1  0  0  0
 17 18  1  0  0  0
 18 19  1  0  0  0
 19 20  1  0  0  0
 19 22  1  0  0  0
 20 21  2  0  0  0
 20 24  1  0  0  0
 24 25  1  0  0  0
 25 26  1  0  0  0
 25 27  1  0  0  0
 25 28  1  0  0  0
 22 23  1  0  0  0
  8  9  1  0  0  0
  9 10  1  0  0  0
M  END
> <minimizedAffinity>
-7.47214

$$$$
