CHEMBL4069365


 33 36  0  0  0  0  0  0  0  0999 V2000
  -16.3509   -1.4616  -14.1300 N   0  0  0  0  0  0  0  0  0  0  0  0
  -16.9436   -1.9195  -14.8279 H   0  0  0  0  0  0  0  0  0  0  0  0
  -12.1490   -5.2890  -10.6581 C   0  0  0  0  0  0  0  0  0  0  0  0
  -13.6816   -5.2093  -10.4711 C   0  0  0  0  0  0  0  0  0  0  0  0
  -13.7966   -4.8066   -8.9618 C   0  0  0  0  0  0  0  0  0  0  0  0
  -14.2817   -6.5207  -10.6641 O   0  0  0  0  0  0  0  0  0  0  0  0
  -13.8818   -7.2369  -11.8438 C   0  0  0  0  0  0  0  0  0  0  0  0
  -14.1837   -6.5921  -13.2056 C   0  0  0  0  0  0  0  0  0  0  0  0
  -14.8800   -7.1262  -14.0680 O   0  0  0  0  0  0  0  0  0  0  0  0
  -13.6157   -5.3644  -13.4533 N   0  0  0  0  0  0  0  0  0  0  0  0
  -14.1969   -4.2535  -12.8205 C   0  0  0  0  0  0  0  0  0  0  0  0
  -14.7924   -3.3227  -13.7098 C   0  0  0  0  0  0  0  0  0  0  0  0
  -15.6168   -2.2919  -13.2531 C   0  0  0  0  0  0  0  0  0  0  0  0
  -15.7556   -2.1972  -11.8629 C   0  0  0  0  0  0  0  0  0  0  0  0
  -15.1421   -3.1104  -10.9674 C   0  0  0  0  0  0  0  0  0  0  0  0
  -14.3477   -4.1808  -11.4208 C   0  0  0  0  0  0  0  0  0  0  0  0
  -12.6214   -5.3165  -13.6514 H   0  0  0  0  0  0  0  0  0  0  0  0
  -16.1095   -0.0986  -14.4341 C   0  0  0  0  0  0  0  0  0  0  0  0
  -17.2643    0.5729  -14.7310 N   0  0  0  0  0  0  0  0  0  0  0  0
  -17.1300    1.7736  -15.2565 C   0  0  0  0  0  0  0  0  0  0  0  0
  -15.8926    2.2469  -15.4026 C   0  0  0  0  0  0  0  0  0  0  0  0
  -15.8406    3.4497  -15.8871 O   0  0  0  0  0  0  0  0  0  0  0  0
  -14.5515    3.9686  -15.8168 C   0  0  0  0  0  0  0  0  0  0  0  0
  -13.8773    2.8407  -15.4067 C   0  0  0  0  0  0  0  0  0  0  0  0
  -14.7340    1.6984  -15.0281 C   0  0  0  0  0  0  0  0  0  0  0  0
  -14.7838    0.4167  -14.5046 N   0  0  0  0  0  0  0  0  0  0  0  0
  -18.0464    2.7149  -15.6224 N   0  0  0  0  0  0  0  0  0  0  0  0
  -17.9221    3.1368  -16.5489 H   0  0  0  0  0  0  0  0  0  0  0  0
  -19.0152    3.2355  -14.7344 C   0  0  0  0  0  0  0  0  0  0  0  0
  -20.4040    2.6534  -14.9721 C   0  0  0  0  0  0  0  0  0  0  0  0
  -21.1760    3.4671  -15.7351 F   0  0  0  0  0  0  0  0  0  0  0  0
  -20.3445    1.4572  -15.5962 F   0  0  0  0  0  0  0  0  0  0  0  0
  -21.0338    2.4779  -13.7901 F   0  0  0  0  0  0  0  0  0  0  0  0
  3  4  1  0  0  0
  4  5  1  0  0  0
  4  6  1  0  0  0
  4 16  1  0  0  0
  6  7  1  0  0  0
  7  8  1  0  0  0
  8  9  2  0  0  0
  8 10  1  0  0  0
 10 11  1  0  0  0
 10 17  1  0  0  0
 11 12  1  0  0  0
 11 16  2  0  0  0
 12 13  2  0  0  0
 13  1  1  0  0  0
 13 14  1  0  0  0
  1 18  1  0  0  0
  1  2  1  0  0  0
 18 19  1  0  0  0
 18 26  2  0  0  0
 19 20  2  0  0  0
 20 27  1  0  0  0
 20 21  1  0  0  0
 27 29  1  0  0  0
 27 28  1  0  0  0
 29 30  1  0  0  0
 30 31  1  0  0  0
 30 32  1  0  0  0
 30 33  1  0  0  0
 21 22  1  0  0  0
 21 25  2  0  0  0
 22 23  1  0  0  0
 23 24  2  0  0  0
 24 25  1  0  0  0
 25 26  1  0  0  0
 14 15  2  0  0  0
 15 16  1  0  0  0
M  END
> <minimizedAffinity>
-8.37143

$$$$
