CHEMBL230685


 33 37  0  0  0  0  0  0  0  0999 V2000
  -31.6840   -4.8434   -3.3375 C   0  0  0  0  0  0  0  0  0  0  0  0
  -30.7287   -4.4085   -4.4151 C   0  0  0  0  0  0  0  0  0  0  0  0
  -30.5319   -3.0341   -4.6351 C   0  0  0  0  0  0  0  0  0  0  0  0
  -29.6588   -2.5573   -5.6229 C   0  0  0  0  0  0  0  0  0  0  0  0
  -28.9914   -3.5181   -6.3874 C   0  0  0  0  0  0  0  0  0  0  0  0
  -29.1830   -4.8791   -6.1849 C   0  0  0  0  0  0  0  0  0  0  0  0
  -28.5272   -5.7419   -6.9559 N   0  0  0  0  0  0  0  0  0  0  0  0
  -28.7222   -7.0650   -6.7616 N   0  0  0  0  0  0  0  0  0  0  0  0
  -29.5718   -7.5023   -5.8093 C   0  0  0  0  0  0  0  0  0  0  0  0
  -30.2384   -6.6749   -4.9940 N   0  0  0  0  0  0  0  0  0  0  0  0
  -30.0536   -5.3537   -5.1919 C   0  0  0  0  0  0  0  0  0  0  0  0
  -29.4823   -1.1081   -5.8570 C   0  0  0  0  0  0  0  0  0  0  0  0
  -30.4584   -0.1820   -5.4438 C   0  0  0  0  0  0  0  0  0  0  0  0
  -30.3380    1.1799   -5.7287 C   0  0  0  0  0  0  0  0  0  0  0  0
  -29.2301    1.6499   -6.4245 C   0  0  0  0  0  0  0  0  0  0  0  0
  -28.2333    0.7617   -6.8183 C   0  0  0  0  0  0  0  0  0  0  0  0
  -28.3579   -0.6010   -6.5329 C   0  0  0  0  0  0  0  0  0  0  0  0
  -29.7737   -8.8759   -5.6494 N   0  0  0  0  0  0  0  0  0  0  0  0
  -30.5646   -9.2146   -6.1673 H   0  0  0  0  0  0  0  0  0  0  0  0
  -28.8226   -9.8135   -5.2188 C   0  0  0  0  0  0  0  0  0  0  0  0
  -28.4561   -9.8640   -3.8730 C   0  0  0  0  0  0  0  0  0  0  0  0
  -27.4335  -10.7241   -3.4468 C   0  0  0  0  0  0  0  0  0  0  0  0
  -26.7883  -11.5594   -4.3622 C   0  0  0  0  0  0  0  0  0  0  0  0
  -27.1382  -11.5056   -5.7039 C   0  0  0  0  0  0  0  0  0  0  0  0
  -28.1547  -10.6504   -6.1234 C   0  0  0  0  0  0  0  0  0  0  0  0
  -25.8068  -12.4641   -4.0664 O   0  0  0  0  0  0  0  0  0  0  0  0
  -24.7038  -11.9218   -3.3407 C   0  0  0  0  0  0  0  0  0  0  0  0
  -23.3970  -12.2696   -4.0688 C   0  0  0  0  0  0  0  0  0  0  0  0
  -22.6209  -11.0769   -4.4645 N   0  0  0  0  0  0  0  0  0  0  0  0
  -23.4538  -10.0026   -5.0277 C   0  0  0  0  0  0  0  0  0  0  0  0
  -23.5997  -10.3643   -6.4889 C   0  0  0  0  0  0  0  0  0  0  0  0
  -22.2036  -10.8394   -6.8354 C   0  0  0  0  0  0  0  0  0  0  0  0
  -21.6516  -11.4094   -5.5293 C   0  0  0  0  0  0  0  0  0  0  0  0
  1  2  1  0  0  0
  2  3  1  0  0  0
  2 11  2  0  0  0
  3  4  2  0  0  0
  4 12  1  0  0  0
  4  5  1  0  0  0
 12 13  1  0  0  0
 12 17  2  0  0  0
 13 14  2  0  0  0
 14 15  1  0  0  0
 15 16  2  0  0  0
 16 17  1  0  0  0
  5  6  2  0  0  0
  6  7  1  0  0  0
  6 11  1  0  0  0
  7  8  2  0  0  0
  8  9  1  0  0  0
  9 18  1  0  0  0
  9 10  2  0  0  0
 18 20  1  0  0  0
 18 19  1  0  0  0
 20 21  1  0  0  0
 20 25  2  0  0  0
 21 22  2  0  0  0
 22 23  1  0  0  0
 23 26  1  0  0  0
 23 24  2  0  0  0
 26 27  1  0  0  0
 27 28  1  0  0  0
 28 29  1  0  0  0
 29 30  1  0  0  0
 29 33  1  0  0  0
 30 31  1  0  0  0
 31 32  1  0  0  0
 32 33  1  0  0  0
 24 25  1  0  0  0
 10 11  1  0  0  0
M  END
> <minimizedAffinity>
-8.42724

$$$$
