CHEMBL1940841


 22 24  0  0  0  0  0  0  0  0999 V2000
  -29.5661   -8.7037   -5.6674 C   0  0  0  0  0  0  0  0  0  0  0  0
  -29.1710   -7.2638   -5.5246 C   0  0  0  0  0  0  0  0  0  0  0  0
  -28.8662   -6.7170   -4.2786 C   0  0  0  0  0  0  0  0  0  0  0  0
  -28.4998   -5.3710   -4.1685 C   0  0  0  0  0  0  0  0  0  0  0  0
  -28.4275   -4.5386   -5.2782 C   0  0  0  0  0  0  0  0  0  0  0  0
  -28.0771   -3.2542   -5.1254 N   0  0  0  0  0  0  0  0  0  0  0  0
  -28.0272   -2.4694   -6.2312 C   0  0  0  0  0  0  0  0  0  0  0  0
  -27.5653   -0.8535   -5.8416 Cl  0  0  0  0  0  0  0  0  0  0  0  0
  -28.2955   -2.8930   -7.5358 C   0  0  0  0  0  0  0  0  0  0  0  0
  -28.6658   -4.2396   -7.6600 C   0  0  0  0  0  0  0  0  0  0  0  0
  -28.7347   -5.0849   -6.5373 C   0  0  0  0  0  0  0  0  0  0  0  0
  -29.1015   -6.4391   -6.6527 C   0  0  0  0  0  0  0  0  0  0  0  0
  -28.2667   -1.9910   -8.7139 C   0  0  0  0  0  0  0  0  0  0  0  0
  -27.4902   -2.1594   -9.7855 C   0  0  0  0  0  0  0  0  0  0  0  0
  -27.4969   -1.2035  -10.9496 C   0  0  0  0  0  0  0  0  0  0  0  0
  -28.3607   -0.3322  -11.0157 O   0  0  0  0  0  0  0  0  0  0  0  0
  -26.4603   -1.4121  -11.9639 C   0  0  0  0  0  0  0  0  0  0  0  0
  -24.8172   -1.1493  -11.5113 S   0  0  0  0  0  0  0  0  0  0  0  0
  -24.2450   -1.5491  -13.0549 C   0  0  0  0  0  0  0  0  0  0  0  0
  -25.2693   -1.8360  -13.9212 C   0  0  0  0  0  0  0  0  0  0  0  0
  -26.5693   -1.7398  -13.3140 C   0  0  0  0  0  0  0  0  0  0  0  0
  -27.8353   -1.9672  -14.0785 C   0  0  0  0  0  0  0  0  0  0  0  0
  1  2  1  0  0  0
  2  3  1  0  0  0
  2 12  2  0  0  0
  3  4  2  0  0  0
  4  5  1  0  0  0
  5  6  1  0  0  0
  5 11  2  0  0  0
  6  7  2  0  0  0
  7  8  1  0  0  0
  7  9  1  0  0  0
  9 13  1  0  0  0
  9 10  2  0  0  0
 13 14  2  0  0  0
 14 15  1  0  0  0
 15 16  2  0  0  0
 15 17  1  0  0  0
 17 18  1  0  0  0
 17 21  2  0  0  0
 18 19  1  0  0  0
 19 20  2  0  0  0
 20 21  1  0  0  0
 21 22  1  0  0  0
 10 11  1  0  0  0
 11 12  1  0  0  0
M  END
> <minimizedAffinity>
-8.02149

$$$$
