CHEMBL3648126


 25 26  0  0  0  0  0  0  0  0999 V2000
  -27.5260   -1.4588   -8.1589 N   0  0  0  0  0  0  0  0  0  0  0  0
  -27.2470   -0.6273   -7.6691 H   0  0  0  0  0  0  0  0  0  0  0  0
  -25.7166   -1.8158  -11.2287 C   0  0  0  0  0  0  0  0  0  0  0  0
  -25.9819   -1.7727   -9.9047 N   0  0  0  0  0  0  0  0  0  0  0  0
  -27.2196   -1.4170   -9.5191 C   0  0  0  0  0  0  0  0  0  0  0  0
  -28.2013   -1.0901  -10.3767 N   0  0  0  0  0  0  0  0  0  0  0  0
  -27.9392   -1.1760  -11.6857 C   0  0  0  0  0  0  0  0  0  0  0  0
  -26.7120   -1.5465  -12.1689 C   0  0  0  0  0  0  0  0  0  0  0  0
  -26.5105   -1.8319  -14.0270 Br  0  0  0  0  0  0  0  0  0  0  0  0
  -24.3915   -2.0716  -11.6618 N   0  0  0  0  0  0  0  0  0  0  0  0
  -23.9746   -2.7179  -10.9928 H   0  0  0  0  0  0  0  0  0  0  0  0
  -22.8068   -1.0653  -13.2080 C   0  0  0  0  0  0  0  0  0  0  0  0
  -23.5322   -0.8928  -11.8672 C   0  0  0  0  0  0  0  0  0  0  0  0
  -24.3077    0.4227  -11.9148 C   0  0  0  0  0  0  0  0  0  0  0  0
  -28.1402   -2.5038   -7.4530 C   0  0  0  0  0  0  0  0  0  0  0  0
  -28.4152   -2.3909   -6.0874 C   0  0  0  0  0  0  0  0  0  0  0  0
  -28.8966   -3.4892   -5.3638 C   0  0  0  0  0  0  0  0  0  0  0  0
  -29.1037   -4.7185   -6.0021 C   0  0  0  0  0  0  0  0  0  0  0  0
  -28.8530   -4.8475   -7.3667 C   0  0  0  0  0  0  0  0  0  0  0  0
  -28.3675   -3.7466   -8.0716 C   0  0  0  0  0  0  0  0  0  0  0  0
  -29.6108   -6.1399   -5.0560 S   0  0  0  0  0  0  0  0  0  0  0  0
  -29.7054   -7.4496   -6.2356 C   0  0  0  0  0  0  0  0  0  0  0  0
  -28.4395   -6.4401   -4.0772 N   0  0  0  0  0  0  0  0  0  0  0  0
  -30.9725   -5.8921   -4.6248 O   0  0  0  0  0  0  0  0  0  0  0  0
  -27.6059   -6.7878   -4.5498 H   0  0  0  0  0  0  0  0  0  0  0  0
 12 13  1  0  0  0
 13 14  1  0  0  0
 13 10  1  0  0  0
 10  3  1  0  0  0
 10 11  1  0  0  0
  3  4  1  0  0  0
  3  8  2  0  0  0
  4  5  2  0  0  0
  5  1  1  0  0  0
  5  6  1  0  0  0
  1 15  1  0  0  0
  1  2  1  0  0  0
 15 16  1  0  0  0
 15 20  2  0  0  0
 16 17  2  0  0  0
 17 18  1  0  0  0
 18 21  1  0  0  0
 18 19  2  0  0  0
 21 22  1  0  0  0
 21 23  2  0  0  0
 21 24  2  0  0  0
 23 25  1  0  0  0
 19 20  1  0  0  0
  6  7  2  0  0  0
  7  8  1  0  0  0
  8  9  1  0  0  0
M  END
> <minimizedAffinity>
-7.49304

$$$$
