CHEMBL3979908


 29 32  0  0  0  0  0  0  0  0999 V2000
  -29.4426   -4.7634   -6.1548 C   0  0  0  0  0  0  0  0  0  0  0  0
  -29.4089   -3.7200   -5.2192 C   0  0  0  0  0  0  0  0  0  0  0  0
  -28.9109   -2.4532   -5.5615 C   0  0  0  0  0  0  0  0  0  0  0  0
  -28.4106   -2.1940   -6.8318 C   0  0  0  0  0  0  0  0  0  0  0  0
  -27.9386   -0.9732   -7.1439 N   0  0  0  0  0  0  0  0  0  0  0  0
  -27.4566   -0.8229   -8.4035 C   0  0  0  0  0  0  0  0  0  0  0  0
  -27.4447   -1.8507   -9.3358 C   0  0  0  0  0  0  0  0  0  0  0  0
  -27.9329   -3.0736   -9.0223 N   0  0  0  0  0  0  0  0  0  0  0  0
  -28.4116   -3.2398   -7.7767 C   0  0  0  0  0  0  0  0  0  0  0  0
  -28.9201   -4.4836   -7.4262 C   0  0  0  0  0  0  0  0  0  0  0  0
  -26.8992   -1.6893  -10.6699 C   0  0  0  0  0  0  0  0  0  0  0  0
  -27.5135   -1.6902  -11.9409 C   0  0  0  0  0  0  0  0  0  0  0  0
  -26.6484   -1.4843  -12.9373 N   0  0  0  0  0  0  0  0  0  0  0  0
  -25.4695   -1.3468  -12.3061 N   0  0  0  0  0  0  0  0  0  0  0  0
  -24.2691   -1.0772  -13.0617 C   0  0  0  0  0  0  0  0  0  0  0  0
  -25.5624   -1.4688  -10.9531 C   0  0  0  0  0  0  0  0  0  0  0  0
  -29.9944   -6.0329   -5.8199 N   0  0  0  0  0  0  0  0  0  0  0  0
  -30.1793   -7.1257   -6.7105 C   0  0  0  0  0  0  0  0  0  0  0  0
  -29.1598   -7.6294   -7.5302 C   0  0  0  0  0  0  0  0  0  0  0  0
  -29.4069   -8.6755   -8.4183 C   0  0  0  0  0  0  0  0  0  0  0  0
  -28.4110   -9.1179   -9.1983 F   0  0  0  0  0  0  0  0  0  0  0  0
  -30.6567   -9.2665   -8.5110 C   0  0  0  0  0  0  0  0  0  0  0  0
  -31.6880   -8.8088   -7.7010 C   0  0  0  0  0  0  0  0  0  0  0  0
  -31.4464   -7.7434   -6.8253 C   0  0  0  0  0  0  0  0  0  0  0  0
  -32.8809   -9.4603   -7.8573 O   0  0  0  0  0  0  0  0  0  0  0  0
  -33.1585  -10.5185   -6.9465 C   0  0  0  0  0  0  0  0  0  0  0  0
  -30.2794   -6.2452   -4.3808 C   0  0  0  0  0  0  0  0  0  0  0  0
  -32.0836   -4.9304   -3.1050 C   0  0  0  0  0  0  0  0  0  0  0  0
  -31.6876   -5.8728   -3.9726 C   0  0  0  0  0  0  0  0  0  0  0  0
 28 29  2  0  0  0
 29 27  1  0  0  0
 27 17  1  0  0  0
 17 18  1  0  0  0
 17  1  1  0  0  0
 18 19  1  0  0  0
 18 24  2  0  0  0
 19 20  2  0  0  0
 20 21  1  0  0  0
 20 22  1  0  0  0
 22 23  2  0  0  0
 23 25  1  0  0  0
 23 24  1  0  0  0
 25 26  1  0  0  0
  1  2  1  0  0  0
  1 10  2  0  0  0
  2  3  2  0  0  0
  3  4  1  0  0  0
  4  5  1  0  0  0
  4  9  2  0  0  0
  5  6  2  0  0  0
  6  7  1  0  0  0
  7 11  1  0  0  0
  7  8  2  0  0  0
 11 12  1  0  0  0
 11 16  2  0  0  0
 12 13  2  0  0  0
 13 14  1  0  0  0
 14 15  1  0  0  0
 14 16  1  0  0  0
  8  9  1  0  0  0
  9 10  1  0  0  0
M  END
> <minimizedAffinity>
-8.85067

$$$$
