CHEMBL395335


 38 41  0  0  0  0  0  0  0  0999 V2000
  -19.6758    2.8580  -15.1241 C   0  0  0  0  0  0  0  0  0  0  0  0
  -19.7062    1.5484  -15.0586 N   0  0  0  0  0  0  0  0  0  0  0  0
  -20.9345    1.2587  -14.5293 C   0  0  0  0  0  0  0  0  0  0  0  0
  -21.5367    0.0314  -14.2340 C   0  0  0  0  0  0  0  0  0  0  0  0
  -22.7994    0.0426  -13.6344 C   0  0  0  0  0  0  0  0  0  0  0  0
  -23.4201    1.2589  -13.3003 C   0  0  0  0  0  0  0  0  0  0  0  0
  -22.8491    2.4926  -13.6416 C   0  0  0  0  0  0  0  0  0  0  0  0
  -21.6072    2.4365  -14.2628 C   0  0  0  0  0  0  0  0  0  0  0  0
  -20.8279    3.4739  -14.6929 O   0  0  0  0  0  0  0  0  0  0  0  0
  -18.6722    3.6924  -15.4890 N   0  0  0  0  0  0  0  0  0  0  0  0
  -18.9349    4.5817  -15.8780 H   0  0  0  0  0  0  0  0  0  0  0  0
  -15.4167    1.8094  -15.4185 C   0  0  0  0  0  0  0  0  0  0  0  0
  -16.7812    2.1109  -15.2935 C   0  0  0  0  0  0  0  0  0  0  0  0
  -17.3131    3.3563  -15.6391 C   0  0  0  0  0  0  0  0  0  0  0  0
  -16.4129    4.3569  -16.0396 C   0  0  0  0  0  0  0  0  0  0  0  0
  -15.0552    4.0709  -16.2037 C   0  0  0  0  0  0  0  0  0  0  0  0
  -14.5582    2.7871  -15.9363 C   0  0  0  0  0  0  0  0  0  0  0  0
  -12.9052    2.5291  -16.3735 Cl  0  0  0  0  0  0  0  0  0  0  0  0
  -15.1188    0.5295  -15.0193 O   0  0  0  0  0  0  0  0  0  0  0  0
  -14.5874    0.3857  -13.7014 C   0  0  0  0  0  0  0  0  0  0  0  0
  -15.4934   -0.5113  -12.8427 C   0  0  0  0  0  0  0  0  0  0  0  0
  -14.8764   -1.7957  -12.4345 N   0  0  0  0  0  0  0  0  0  0  0  0
  -16.1914   -3.6521  -11.3192 C   0  0  0  0  0  0  0  0  0  0  0  0
  -15.8562   -2.8848  -12.5962 C   0  0  0  0  0  0  0  0  0  0  0  0
  -13.5777   -2.0632  -13.0733 C   0  0  0  0  0  0  0  0  0  0  0  0
  -12.6361   -2.9930  -12.3139 C   0  0  0  0  0  0  0  0  0  0  0  0
  -23.3314   -1.2013  -13.3316 O   0  0  0  0  0  0  0  0  0  0  0  0
  -24.6978   -1.4044  -13.3383 C   0  0  0  0  0  0  0  0  0  0  0  0
  -25.4420   -1.6567  -14.4867 C   0  0  0  0  0  0  0  0  0  0  0  0
  -26.8148   -1.8020  -14.3681 C   0  0  0  0  0  0  0  0  0  0  0  0
  -27.4757   -1.7724  -13.1917 N   0  0  0  0  0  0  0  0  0  0  0  0
  -26.7170   -1.5988  -12.0709 C   0  0  0  0  0  0  0  0  0  0  0  0
  -25.3372   -1.4127  -12.0997 C   0  0  0  0  0  0  0  0  0  0  0  0
  -27.4551   -1.6184  -10.7623 C   0  0  0  0  0  0  0  0  0  0  0  0
  -28.3046   -0.7708  -10.4996 O   0  0  0  0  0  0  0  0  0  0  0  0
  -27.0874   -2.6409   -9.9081 N   0  0  0  0  0  0  0  0  0  0  0  0
  -27.6662   -2.8357   -8.5978 C   0  0  0  0  0  0  0  0  0  0  0  0
  -26.3683   -3.2754  -10.2432 H   0  0  0  0  0  0  0  0  0  0  0  0
 23 24  1  0  0  0
 24 22  1  0  0  0
 22 25  1  0  0  0
 22 21  1  0  0  0
 25 26  1  0  0  0
 21 20  1  0  0  0
 20 19  1  0  0  0
 19 12  1  0  0  0
 12 13  1  0  0  0
 12 17  2  0  0  0
 13 14  2  0  0  0
 14 10  1  0  0  0
 14 15  1  0  0  0
 10  1  1  0  0  0
 10 11  1  0  0  0
  1  2  2  0  0  0
  1  9  1  0  0  0
  2  3  1  0  0  0
  3  4  1  0  0  0
  3  8  2  0  0  0
  4  5  2  0  0  0
  5 27  1  0  0  0
  5  6  1  0  0  0
 27 28  1  0  0  0
 28 29  1  0  0  0
 28 33  2  0  0  0
 29 30  2  0  0  0
 30 31  1  0  0  0
 31 32  2  0  0  0
 32 34  1  0  0  0
 32 33  1  0  0  0
 34 35  2  0  0  0
 34 36  1  0  0  0
 36 37  1  0  0  0
 36 38  1  0  0  0
  6  7  2  0  0  0
  7  8  1  0  0  0
  8  9  1  0  0  0
 15 16  2  0  0  0
 16 17  1  0  0  0
 17 18  1  0  0  0
M  END
> <minimizedAffinity>
-9.27805

$$$$
