CHEMBL1988838


 36 38  0  0  0  0  0  0  0  0999 V2000
  -15.8956    3.9599  -17.0547 C   0  0  0  0  0  0  0  0  0  0  0  0
  -15.6839    2.9448  -15.9789 C   0  0  0  0  0  0  0  0  0  0  0  0
  -14.4031    2.6467  -15.5716 C   0  0  0  0  0  0  0  0  0  0  0  0
  -14.1100    1.7198  -14.6560 N   0  0  0  0  0  0  0  0  0  0  0  0
  -15.1364    1.0355  -14.1324 C   0  0  0  0  0  0  0  0  0  0  0  0
  -16.4113    1.2256  -14.4867 N   0  0  0  0  0  0  0  0  0  0  0  0
  -16.6901    2.1774  -15.4015 C   0  0  0  0  0  0  0  0  0  0  0  0
  -14.8727    0.0520  -13.1759 N   0  0  0  0  0  0  0  0  0  0  0  0
  -14.2319    0.4130  -12.4820 H   0  0  0  0  0  0  0  0  0  0  0  0
  -14.7774   -1.3273  -13.4220 C   0  0  0  0  0  0  0  0  0  0  0  0
  -13.9460   -1.7916  -14.4479 C   0  0  0  0  0  0  0  0  0  0  0  0
  -13.7883   -3.1625  -14.6778 C   0  0  0  0  0  0  0  0  0  0  0  0
  -14.4761   -4.0887  -13.8941 C   0  0  0  0  0  0  0  0  0  0  0  0
  -15.3147   -3.6295  -12.8788 C   0  0  0  0  0  0  0  0  0  0  0  0
  -15.4820   -2.2638  -12.6563 C   0  0  0  0  0  0  0  0  0  0  0  0
  -16.1847   -4.7763  -11.8485 S   0  0  0  0  0  0  0  0  0  0  0  0
  -14.9440   -5.8192  -11.4213 N   0  0  0  0  0  0  0  0  0  0  0  0
  -16.5989   -4.0968  -10.6455 O   0  0  0  0  0  0  0  0  0  0  0  0
  -17.1024   -5.5209  -12.6795 O   0  0  0  0  0  0  0  0  0  0  0  0
  -14.3186   -5.4296  -10.7221 H   0  0  0  0  0  0  0  0  0  0  0  0
  -14.5152   -6.2992  -12.2137 H   0  0  0  0  0  0  0  0  0  0  0  0
  -18.0203    2.3613  -15.8404 N   0  0  0  0  0  0  0  0  0  0  0  0
  -18.0900    3.1058  -16.5225 H   0  0  0  0  0  0  0  0  0  0  0  0
  -19.2451    2.0828  -15.1997 C   0  0  0  0  0  0  0  0  0  0  0  0
  -19.8068    0.8046  -15.1262 C   0  0  0  0  0  0  0  0  0  0  0  0
  -21.1043    0.6047  -14.6415 C   0  0  0  0  0  0  0  0  0  0  0  0
  -21.8778    1.6849  -14.2276 C   0  0  0  0  0  0  0  0  0  0  0  0
  -21.3420    2.9687  -14.3039 C   0  0  0  0  0  0  0  0  0  0  0  0
  -20.0381    3.1612  -14.7788 C   0  0  0  0  0  0  0  0  0  0  0  0
  -23.1376    1.3715  -13.7959 O   0  0  0  0  0  0  0  0  0  0  0  0
  -23.4431   -0.0198  -13.7562 C   0  0  0  0  0  0  0  0  0  0  0  0
  -23.8378   -0.4735  -12.3563 C   0  0  0  0  0  0  0  0  0  0  0  0
  -22.9691   -1.3160  -11.7267 N   0  0  0  0  0  0  0  0  0  0  0  0
  -24.8801   -0.1235  -11.8090 O   0  0  0  0  0  0  0  0  0  0  0  0
  -22.0884   -1.5714  -12.1596 H   0  0  0  0  0  0  0  0  0  0  0  0
  -23.1710   -1.6078  -10.7805 H   0  0  0  0  0  0  0  0  0  0  0  0
  1  2  1  0  0  0
  2  3  1  0  0  0
  2  7  2  0  0  0
  3  4  2  0  0  0
  4  5  1  0  0  0
  5  8  1  0  0  0
  5  6  2  0  0  0
  8 10  1  0  0  0
  8  9  1  0  0  0
 10 11  1  0  0  0
 10 15  2  0  0  0
 11 12  2  0  0  0
 12 13  1  0  0  0
 13 14  2  0  0  0
 14 16  1  0  0  0
 14 15  1  0  0  0
 16 17  1  0  0  0
 16 18  2  0  0  0
 16 19  2  0  0  0
 17 20  1  0  0  0
 17 21  1  0  0  0
  6  7  1  0  0  0
  7 22  1  0  0  0
 22 24  1  0  0  0
 22 23  1  0  0  0
 24 25  1  0  0  0
 24 29  2  0  0  0
 25 26  2  0  0  0
 26 27  1  0  0  0
 27 30  1  0  0  0
 27 28  2  0  0  0
 30 31  1  0  0  0
 31 32  1  0  0  0
 32 33  1  0  0  0
 32 34  2  0  0  0
 33 35  1  0  0  0
 33 36  1  0  0  0
 28 29  1  0  0  0
M  END
> <minimizedAffinity>
-8.91851

$$$$
