CHEMBL2364611


 30 34  0  0  0  0  0  0  0  0999 V2000
  -28.6711   -8.1948   -7.0703 C   0  0  0  0  0  0  0  0  0  0  0  0
  -28.5675   -7.9508   -8.4016 N   0  0  0  0  0  0  0  0  0  0  0  0
  -28.0188   -9.0604   -8.8625 N   0  0  0  0  0  0  0  0  0  0  0  0
  -27.8379  -10.0604   -7.9691 C   0  0  0  0  0  0  0  0  0  0  0  0
  -28.1880   -9.5382   -6.7385 C   0  0  0  0  0  0  0  0  0  0  0  0
  -27.3179  -11.2510   -8.6893 C   0  0  0  0  0  0  0  0  0  0  0  0
  -26.7356  -10.6123   -9.9759 C   0  0  0  0  0  0  0  0  0  0  0  0
  -27.5926   -9.3621  -10.2171 C   0  0  0  0  0  0  0  0  0  0  0  0
  -28.1536  -10.2589   -5.4530 C   0  0  0  0  0  0  0  0  0  0  0  0
  -29.3619  -10.7105   -4.9131 C   0  0  0  0  0  0  0  0  0  0  0  0
  -29.3476  -11.4122   -3.7252 C   0  0  0  0  0  0  0  0  0  0  0  0
  -28.2218  -11.7743   -3.0836 N   0  0  0  0  0  0  0  0  0  0  0  0
  -27.0499  -11.3803   -3.6060 C   0  0  0  0  0  0  0  0  0  0  0  0
  -25.8865  -11.8269   -2.9923 C   0  0  0  0  0  0  0  0  0  0  0  0
  -24.6155  -11.5053   -3.4827 C   0  0  0  0  0  0  0  0  0  0  0  0
  -24.5041  -10.6340   -4.5586 C   0  0  0  0  0  0  0  0  0  0  0  0
  -25.6653  -10.1079   -5.1235 C   0  0  0  0  0  0  0  0  0  0  0  0
  -26.9543  -10.5582   -4.7503 C   0  0  0  0  0  0  0  0  0  0  0  0
  -23.2052  -10.3111   -5.2131 C   0  0  0  0  0  0  0  0  0  0  0  0
  -23.1308   -9.1344   -5.9019 N   0  0  0  0  0  0  0  0  0  0  0  0
  -22.2460  -11.0619   -5.1515 O   0  0  0  0  0  0  0  0  0  0  0  0
  -23.9474   -8.6045   -6.1716 H   0  0  0  0  0  0  0  0  0  0  0  0
  -22.2729   -8.9729   -6.4168 H   0  0  0  0  0  0  0  0  0  0  0  0
  -27.8068   -4.4934   -4.0820 C   0  0  0  0  0  0  0  0  0  0  0  0
  -28.8229   -5.3873   -4.7251 C   0  0  0  0  0  0  0  0  0  0  0  0
  -30.1747   -5.2724   -4.4235 C   0  0  0  0  0  0  0  0  0  0  0  0
  -31.0707   -6.1480   -5.0272 C   0  0  0  0  0  0  0  0  0  0  0  0
  -30.5933   -7.1115   -5.9116 C   0  0  0  0  0  0  0  0  0  0  0  0
  -29.2265   -7.1677   -6.1698 C   0  0  0  0  0  0  0  0  0  0  0  0
  -28.3454   -6.3152   -5.5876 N   0  0  0  0  0  0  0  0  0  0  0  0
 24 25  1  0  0  0
 25 26  1  0  0  0
 25 30  2  0  0  0
 26 27  2  0  0  0
 27 28  1  0  0  0
 28 29  2  0  0  0
 29  1  1  0  0  0
 29 30  1  0  0  0
  1  2  2  0  0  0
  1  5  1  0  0  0
  2  3  1  0  0  0
  3  4  1  0  0  0
  3  8  1  0  0  0
  4  5  2  0  0  0
  4  6  1  0  0  0
  5  9  1  0  0  0
  9 10  1  0  0  0
  9 18  2  0  0  0
 10 11  2  0  0  0
 11 12  1  0  0  0
 12 13  2  0  0  0
 13 14  1  0  0  0
 13 18  1  0  0  0
 14 15  2  0  0  0
 15 16  1  0  0  0
 16 19  1  0  0  0
 16 17  2  0  0  0
 19 20  1  0  0  0
 19 21  2  0  0  0
 20 22  1  0  0  0
 20 23  1  0  0  0
 17 18  1  0  0  0
  6  7  1  0  0  0
  7  8  1  0  0  0
M  END
> <minimizedAffinity>
-8.00224

$$$$
