CHEMBL399787


 23 26  0  0  0  0  0  0  0  0999 V2000
  -27.5719   -5.9545   -4.6445 O   0  0  0  0  0  0  0  0  0  0  0  0
  -28.3668   -6.8226   -4.9379 C   0  0  0  0  0  0  0  0  0  0  0  0
  -28.3857   -8.1305   -4.4905 N   0  0  0  0  0  0  0  0  0  0  0  0
  -29.2773   -8.9529   -5.1330 N   0  0  0  0  0  0  0  0  0  0  0  0
  -29.9257   -8.2013   -5.9919 C   0  0  0  0  0  0  0  0  0  0  0  0
  -29.4990   -6.7767   -5.8989 C   0  0  0  0  0  0  0  0  0  0  0  0
  -30.1263   -5.7335   -6.4647 C   0  0  0  0  0  0  0  0  0  0  0  0
  -27.7150   -8.5042   -3.8275 H   0  0  0  0  0  0  0  0  0  0  0  0
  -29.8244   -4.3615   -6.2634 C   0  0  0  0  0  0  0  0  0  0  0  0
  -30.2272   -3.4653   -5.2825 C   0  0  0  0  0  0  0  0  0  0  0  0
  -29.5567   -2.2385   -5.5139 C   0  0  0  0  0  0  0  0  0  0  0  0
  -28.8198   -2.4021   -6.6644 C   0  0  0  0  0  0  0  0  0  0  0  0
  -29.0040   -3.6707   -7.1263 N   0  0  0  0  0  0  0  0  0  0  0  0
  -27.9338   -1.3957   -7.3034 C   0  0  0  0  0  0  0  0  0  0  0  0
  -27.5943   -0.3013   -6.2787 C   0  0  0  0  0  0  0  0  0  0  0  0
  -28.8414    0.1617   -5.4988 C   0  0  0  0  0  0  0  0  0  0  0  0
  -29.5092   -0.9849   -4.7090 C   0  0  0  0  0  0  0  0  0  0  0  0
  -28.5040   -4.0697   -7.9134 H   0  0  0  0  0  0  0  0  0  0  0  0
  -30.8838   -8.7387   -6.9051 C   0  0  0  0  0  0  0  0  0  0  0  0
  -32.2569   -8.6047   -6.9907 C   0  0  0  0  0  0  0  0  0  0  0  0
  -32.8572   -9.2813   -8.0395 N   0  0  0  0  0  0  0  0  0  0  0  0
  -31.9659   -9.9202   -8.7779 N   0  0  0  0  0  0  0  0  0  0  0  0
  -30.3975   -9.7048   -8.2366 S   0  0  0  0  0  0  0  0  0  0  0  0
  1  2  2  0  0  0
  2  3  1  0  0  0
  2  6  1  0  0  0
  3  4  1  0  0  0
  3  8  1  0  0  0
  4  5  2  0  0  0
  5 19  1  0  0  0
  5  6  1  0  0  0
 19 20  2  0  0  0
 19 23  1  0  0  0
 20 21  1  0  0  0
 21 22  2  0  0  0
 22 23  1  0  0  0
  6  7  2  0  0  0
  7  9  1  0  0  0
  9 10  2  0  0  0
  9 13  1  0  0  0
 10 11  1  0  0  0
 11 12  2  0  0  0
 11 17  1  0  0  0
 12 13  1  0  0  0
 12 14  1  0  0  0
 13 18  1  0  0  0
 14 15  1  0  0  0
 15 16  1  0  0  0
 16 17  1  0  0  0
M  END
> <minimizedAffinity>
-7.95726

$$$$
