CHEMBL234203


 27 29  0  0  0  0  0  0  0  0999 V2000
  -25.1606   -1.5555  -10.1128 O   0  0  0  0  0  0  0  0  0  0  0  0
  -26.1737   -1.6575  -10.7982 C   0  0  0  0  0  0  0  0  0  0  0  0
  -27.4514   -1.8669  -10.2955 N   0  0  0  0  0  0  0  0  0  0  0  0
  -28.1722   -1.9132  -11.0129 H   0  0  0  0  0  0  0  0  0  0  0  0
  -27.8281   -2.0822   -8.9531 C   0  0  0  0  0  0  0  0  0  0  0  0
  -28.2838   -3.3103   -8.4690 C   0  0  0  0  0  0  0  0  0  0  0  0
  -28.7084   -3.4503   -7.1434 C   0  0  0  0  0  0  0  0  0  0  0  0
  -28.6855   -2.3615   -6.2660 C   0  0  0  0  0  0  0  0  0  0  0  0
  -28.1868   -1.1377   -6.7354 C   0  0  0  0  0  0  0  0  0  0  0  0
  -27.7648   -0.9999   -8.0668 C   0  0  0  0  0  0  0  0  0  0  0  0
  -29.2087   -2.4946   -4.8563 C   0  0  0  0  0  0  0  0  0  0  0  0
  -30.0883   -3.5237   -4.6962 F   0  0  0  0  0  0  0  0  0  0  0  0
  -28.2203   -2.7040   -3.9442 F   0  0  0  0  0  0  0  0  0  0  0  0
  -29.8699   -1.3775   -4.4420 F   0  0  0  0  0  0  0  0  0  0  0  0
  -26.1487   -1.5733  -12.2553 C   0  0  0  0  0  0  0  0  0  0  0  0
  -27.1727   -1.9873  -12.9965 N   0  0  0  0  0  0  0  0  0  0  0  0
  -26.7934   -1.8115  -14.2986 C   0  0  0  0  0  0  0  0  0  0  0  0
  -25.5282   -1.2855  -14.3685 C   0  0  0  0  0  0  0  0  0  0  0  0
  -25.1275   -1.1088  -13.0668 N   0  0  0  0  0  0  0  0  0  0  0  0
  -23.8124   -0.6100  -12.6848 C   0  0  0  0  0  0  0  0  0  0  0  0
  -22.8136   -0.6011  -13.8497 C   0  0  0  0  0  0  0  0  0  0  0  0
  -22.0931    0.6975  -14.1476 C   0  0  0  0  0  0  0  0  0  0  0  0
  -20.8420    0.7855  -14.7622 C   0  0  0  0  0  0  0  0  0  0  0  0
  -20.3067    2.0440  -15.0157 C   0  0  0  0  0  0  0  0  0  0  0  0
  -20.9174    3.2045  -14.6989 N   0  0  0  0  0  0  0  0  0  0  0  0
  -22.1143    3.1044  -14.0883 C   0  0  0  0  0  0  0  0  0  0  0  0
  -22.7293    1.8972  -13.7963 C   0  0  0  0  0  0  0  0  0  0  0  0
  1  2  2  0  0  0
  2  3  1  0  0  0
  2 15  1  0  0  0
  3  5  1  0  0  0
  3  4  1  0  0  0
  5  6  1  0  0  0
  5 10  2  0  0  0
  6  7  2  0  0  0
  7  8  1  0  0  0
  8 11  1  0  0  0
  8  9  2  0  0  0
 11 12  1  0  0  0
 11 13  1  0  0  0
 11 14  1  0  0  0
  9 10  1  0  0  0
 15 16  2  0  0  0
 15 19  1  0  0  0
 16 17  1  0  0  0
 17 18  2  0  0  0
 18 19  1  0  0  0
 19 20  1  0  0  0
 20 21  1  0  0  0
 21 22  1  0  0  0
 22 23  1  0  0  0
 22 27  2  0  0  0
 23 24  2  0  0  0
 24 25  1  0  0  0
 25 26  2  0  0  0
 26 27  1  0  0  0
M  END
> <minimizedAffinity>
-9.40715

$$$$
