CHEMBL4463108


 26 29  0  0  0  0  0  0  0  0999 V2000
  -30.8763   -6.0204   -5.2946 C   0  0  0  0  0  0  0  0  0  0  0  0
  -31.1800   -5.7035   -4.0344 N   0  0  0  0  0  0  0  0  0  0  0  0
  -30.7395   -4.5101   -3.5982 C   0  0  0  0  0  0  0  0  0  0  0  0
  -30.0212   -3.6027   -4.3598 C   0  0  0  0  0  0  0  0  0  0  0  0
  -29.7554   -3.9976   -5.6490 C   0  0  0  0  0  0  0  0  0  0  0  0
  -30.1883   -5.1962   -6.1058 N   0  0  0  0  0  0  0  0  0  0  0  0
  -29.0099   -3.1662   -6.6127 C   0  0  0  0  0  0  0  0  0  0  0  0
  -28.7295   -3.6131   -7.9228 C   0  0  0  0  0  0  0  0  0  0  0  0
  -28.0488   -2.8073   -8.8361 C   0  0  0  0  0  0  0  0  0  0  0  0
  -27.6439   -1.5599   -8.4187 C   0  0  0  0  0  0  0  0  0  0  0  0
  -27.8779   -1.0903   -7.1809 N   0  0  0  0  0  0  0  0  0  0  0  0
  -28.5551   -1.8832   -6.3042 C   0  0  0  0  0  0  0  0  0  0  0  0
  -28.8239   -1.0618   -4.7567 S   0  0  0  0  0  0  0  0  0  0  0  0
  -29.6007   -2.3198   -3.7404 C   0  0  0  0  0  0  0  0  0  0  0  0
  -31.3091   -7.2756   -5.7412 N   0  0  0  0  0  0  0  0  0  0  0  0
  -31.6797   -7.8032   -4.9669 H   0  0  0  0  0  0  0  0  0  0  0  0
  -29.8759   -9.5251   -9.0466 C   0  0  0  0  0  0  0  0  0  0  0  0
  -29.1651   -8.4311   -8.5545 C   0  0  0  0  0  0  0  0  0  0  0  0
  -29.6318   -7.7129   -7.4593 C   0  0  0  0  0  0  0  0  0  0  0  0
  -30.8204   -8.0406   -6.8151 C   0  0  0  0  0  0  0  0  0  0  0  0
  -31.5534   -9.1188   -7.3300 C   0  0  0  0  0  0  0  0  0  0  0  0
  -31.0799   -9.8835   -8.4150 C   0  0  0  0  0  0  0  0  0  0  0  0
  -28.5610  -11.2805   -9.9482 C   0  0  0  0  0  0  0  0  0  0  0  0
  -29.4671  -10.2019  -10.1649 O   0  0  0  0  0  0  0  0  0  0  0  0
  -31.9049  -10.9264   -8.7663 O   0  0  0  0  0  0  0  0  0  0  0  0
  -31.7205  -12.1435   -8.0545 C   0  0  0  0  0  0  0  0  0  0  0  0
 23 24  1  0  0  0
 24 17  1  0  0  0
 17 18  1  0  0  0
 17 22  2  0  0  0
 18 19  2  0  0  0
 19 20  1  0  0  0
 20 15  1  0  0  0
 20 21  2  0  0  0
 15  1  1  0  0  0
 15 16  1  0  0  0
  1  2  1  0  0  0
  1  6  2  0  0  0
  2  3  2  0  0  0
  3  4  1  0  0  0
  4  5  2  0  0  0
  4 14  1  0  0  0
  5  6  1  0  0  0
  5  7  1  0  0  0
  7  8  1  0  0  0
  7 12  2  0  0  0
  8  9  2  0  0  0
  9 10  1  0  0  0
 10 11  2  0  0  0
 11 12  1  0  0  0
 12 13  1  0  0  0
 13 14  1  0  0  0
 21 22  1  0  0  0
 22 25  1  0  0  0
 25 26  1  0  0  0
M  END
> <minimizedAffinity>
-8.21140

$$$$
