CHEMBL1835870


 34 38  0  0  0  0  0  0  0  0999 V2000
  -28.2714   -2.7135   -7.4724 C   0  0  0  0  0  0  0  0  0  0  0  0
  -29.0869   -3.7029   -8.0406 C   0  0  0  0  0  0  0  0  0  0  0  0
  -29.6834   -4.6832   -7.2660 C   0  0  0  0  0  0  0  0  0  0  0  0
  -29.4302   -4.7492   -5.8951 C   0  0  0  0  0  0  0  0  0  0  0  0
  -28.6175   -3.7588   -5.3247 C   0  0  0  0  0  0  0  0  0  0  0  0
  -28.0382   -2.7594   -6.1015 C   0  0  0  0  0  0  0  0  0  0  0  0
  -30.0611   -5.8865   -5.1128 C   0  0  0  0  0  0  0  0  0  0  0  0
  -30.6769   -6.9267   -6.0748 C   0  0  0  0  0  0  0  0  0  0  0  0
  -29.6678   -7.9280   -6.6243 C   0  0  0  0  0  0  0  0  0  0  0  0
  -28.7789   -8.6155   -5.5654 C   0  0  0  0  0  0  0  0  0  0  0  0
  -28.1300   -7.5270   -4.6877 C   0  0  0  0  0  0  0  0  0  0  0  0
  -29.1287   -6.5345   -4.0766 C   0  0  0  0  0  0  0  0  0  0  0  0
  -29.2869   -9.7874   -4.8348 N   0  0  0  0  0  0  0  0  0  0  0  0
  -28.5337  -10.2312   -3.6548 C   0  0  0  0  0  0  0  0  0  0  0  0
  -27.4860  -11.3193   -3.9627 C   0  0  0  0  0  0  0  0  0  0  0  0
  -28.0351  -12.4188   -4.7070 O   0  0  0  0  0  0  0  0  0  0  0  0
  -28.6949  -11.9645   -5.8932 C   0  0  0  0  0  0  0  0  0  0  0  0
  -29.7977  -10.9576   -5.5512 C   0  0  0  0  0  0  0  0  0  0  0  0
  -27.8434   -1.5958   -8.2113 N   0  0  0  0  0  0  0  0  0  0  0  0
  -28.0297   -0.6943   -7.8007 H   0  0  0  0  0  0  0  0  0  0  0  0
  -27.9984   -2.0142  -12.8289 N   0  0  0  0  0  0  0  0  0  0  0  0
  -27.5650   -1.8279  -11.5688 C   0  0  0  0  0  0  0  0  0  0  0  0
  -28.3052   -1.8950  -10.4810 N   0  0  0  0  0  0  0  0  0  0  0  0
  -27.4104   -1.6275   -9.4864 C   0  0  0  0  0  0  0  0  0  0  0  0
  -26.1625   -1.4704   -9.8875 N   0  0  0  0  0  0  0  0  0  0  0  0
  -26.2488   -1.5424  -11.2201 N   0  0  0  0  0  0  0  0  0  0  0  0
  -28.8933   -2.4730  -12.9592 H   0  0  0  0  0  0  0  0  0  0  0  0
  -27.3100   -2.1619  -13.5645 H   0  0  0  0  0  0  0  0  0  0  0  0
  -25.0984   -1.3384  -12.0334 C   0  0  0  0  0  0  0  0  0  0  0  0
  -23.8394   -1.3682  -11.4236 C   0  0  0  0  0  0  0  0  0  0  0  0
  -22.7056   -1.1458  -12.1974 C   0  0  0  0  0  0  0  0  0  0  0  0
  -22.8579   -0.8915  -13.5526 C   0  0  0  0  0  0  0  0  0  0  0  0
  -24.1384   -0.8795  -14.0826 C   0  0  0  0  0  0  0  0  0  0  0  0
  -25.2608   -1.1123  -13.3668 N   0  0  0  0  0  0  0  0  0  0  0  0
 21 22  1  0  0  0
 21 27  1  0  0  0
 21 28  1  0  0  0
 22 23  2  0  0  0
 22 26  1  0  0  0
 23 24  1  0  0  0
 24 19  1  0  0  0
 24 25  2  0  0  0
 19  1  1  0  0  0
 19 20  1  0  0  0
  1  2  1  0  0  0
  1  6  2  0  0  0
  2  3  2  0  0  0
  3  4  1  0  0  0
  4  5  2  0  0  0
  7  8  1  0  0  0
  7 12  1  0  0  0
  7  4  1  0  0  0
  8  9  1  0  0  0
  9 10  1  0  0  0
 10 11  1  0  0  0
 10 13  1  0  0  0
 13 14  1  0  0  0
 13 18  1  0  0  0
 14 15  1  0  0  0
 15 16  1  0  0  0
 16 17  1  0  0  0
 17 18  1  0  0  0
 11 12  1  0  0  0
  5  6  1  0  0  0
 25 26  1  0  0  0
 26 29  1  0  0  0
 29 30  1  0  0  0
 29 34  2  0  0  0
 30 31  2  0  0  0
 31 32  1  0  0  0
 32 33  2  0  0  0
 33 34  1  0  0  0
M  END
> <minimizedAffinity>
-9.46352

$$$$
