CHEMBL4080640


 29 32  0  0  0  0  0  0  0  0999 V2000
  -27.8688   -2.1940   -7.9924 C   0  0  0  0  0  0  0  0  0  0  0  0
  -27.6875   -0.9016   -7.6165 N   0  0  0  0  0  0  0  0  0  0  0  0
  -28.2119   -0.4581   -6.4628 C   0  0  0  0  0  0  0  0  0  0  0  0
  -27.9803    0.8679   -6.1425 N   0  0  0  0  0  0  0  0  0  0  0  0
  -28.9688   -1.1547   -5.6108 N   0  0  0  0  0  0  0  0  0  0  0  0
  -29.1204   -2.4279   -5.9920 C   0  0  0  0  0  0  0  0  0  0  0  0
  -29.8327   -3.3597   -5.2947 N   0  0  0  0  0  0  0  0  0  0  0  0
  -29.7641   -4.5835   -5.9201 C   0  0  0  0  0  0  0  0  0  0  0  0
  -30.3135   -5.8177   -5.5503 C   0  0  0  0  0  0  0  0  0  0  0  0
  -30.0595   -6.9172   -6.3749 C   0  0  0  0  0  0  0  0  0  0  0  0
  -29.2931   -6.7689   -7.5233 C   0  0  0  0  0  0  0  0  0  0  0  0
  -29.0186   -7.8318   -8.3369 O   0  0  0  0  0  0  0  0  0  0  0  0
  -28.7638   -5.5340   -7.8950 C   0  0  0  0  0  0  0  0  0  0  0  0
  -28.9973   -4.4071   -7.0783 C   0  0  0  0  0  0  0  0  0  0  0  0
  -28.6053   -3.0271   -7.1286 C   0  0  0  0  0  0  0  0  0  0  0  0
  -27.7788    1.3822   -6.9902 H   0  0  0  0  0  0  0  0  0  0  0  0
  -28.7322    1.2091   -5.5620 H   0  0  0  0  0  0  0  0  0  0  0  0
  -30.3178   -3.1642   -4.4324 H   0  0  0  0  0  0  0  0  0  0  0  0
  -29.4383   -8.6244   -7.9664 H   0  0  0  0  0  0  0  0  0  0  0  0
  -27.3678   -2.6473   -9.2123 N   0  0  0  0  0  0  0  0  0  0  0  0
  -26.3672   -2.7905   -9.1932 H   0  0  0  0  0  0  0  0  0  0  0  0
  -27.8263   -1.9581  -10.4033 C   0  0  0  0  0  0  0  0  0  0  0  0
  -23.2645   -0.8281  -13.8776 C   0  0  0  0  0  0  0  0  0  0  0  0
  -24.4405   -1.1304  -12.9959 C   0  0  0  0  0  0  0  0  0  0  0  0
  -25.6757   -1.4998  -13.5381 C   0  0  0  0  0  0  0  0  0  0  0  0
  -26.7647   -1.7717  -12.7018 C   0  0  0  0  0  0  0  0  0  0  0  0
  -26.6406   -1.6806  -11.3072 C   0  0  0  0  0  0  0  0  0  0  0  0
  -25.3991   -1.3170  -10.7692 C   0  0  0  0  0  0  0  0  0  0  0  0
  -24.3113   -1.0428  -11.6048 C   0  0  0  0  0  0  0  0  0  0  0  0
 23 24  1  0  0  0
 24 25  1  0  0  0
 24 29  2  0  0  0
 25 26  2  0  0  0
 26 27  1  0  0  0
 27 22  1  0  0  0
 27 28  2  0  0  0
 22 20  1  0  0  0
 20  1  1  0  0  0
 20 21  1  0  0  0
  1  2  1  0  0  0
  1 15  2  0  0  0
  2  3  2  0  0  0
  3  4  1  0  0  0
  3  5  1  0  0  0
  4 16  1  0  0  0
  4 17  1  0  0  0
  5  6  2  0  0  0
  6  7  1  0  0  0
  6 15  1  0  0  0
  7  8  1  0  0  0
  7 18  1  0  0  0
  8  9  1  0  0  0
  8 14  2  0  0  0
  9 10  2  0  0  0
 10 11  1  0  0  0
 11 12  1  0  0  0
 11 13  2  0  0  0
 12 19  1  0  0  0
 13 14  1  0  0  0
 14 15  1  0  0  0
 28 29  1  0  0  0
M  END
> <minimizedAffinity>
-9.90812

$$$$
