CHEMBL333297


 31 35  0  0  0  0  0  0  0  0999 V2000
  -27.0656   -1.8952   -9.7289 C   0  0  0  0  0  0  0  0  0  0  0  0
  -27.5897   -1.2668   -8.5993 C   0  0  0  0  0  0  0  0  0  0  0  0
  -28.1534   -2.2757   -7.7255 C   0  0  0  0  0  0  0  0  0  0  0  0
  -28.7361   -2.3131   -6.4295 C   0  0  0  0  0  0  0  0  0  0  0  0
  -29.0583   -3.5618   -5.8596 C   0  0  0  0  0  0  0  0  0  0  0  0
  -28.8287   -4.7462   -6.5571 C   0  0  0  0  0  0  0  0  0  0  0  0
  -28.3161   -4.7312   -7.8486 C   0  0  0  0  0  0  0  0  0  0  0  0
  -27.9899   -3.4861   -8.3820 C   0  0  0  0  0  0  0  0  0  0  0  0
  -27.4481   -3.2134   -9.5998 N   0  0  0  0  0  0  0  0  0  0  0  0
  -27.2128   -3.9223  -10.2776 H   0  0  0  0  0  0  0  0  0  0  0  0
  -27.9015   -2.3038  -12.4745 O   0  0  0  0  0  0  0  0  0  0  0  0
  -26.6924   -1.7346  -12.2076 C   0  0  0  0  0  0  0  0  0  0  0  0
  -26.0471   -1.4745  -13.3530 N   0  0  0  0  0  0  0  0  0  0  0  0
  -24.8254   -0.9573  -13.2476 C   0  0  0  0  0  0  0  0  0  0  0  0
  -24.1402   -0.7099  -14.4254 C   0  0  0  0  0  0  0  0  0  0  0  0
  -22.8419   -0.2102  -14.4176 C   0  0  0  0  0  0  0  0  0  0  0  0
  -22.2226    0.0571  -13.2046 C   0  0  0  0  0  0  0  0  0  0  0  0
  -22.9045   -0.1652  -12.0010 C   0  0  0  0  0  0  0  0  0  0  0  0
  -24.2163   -0.6812  -12.0010 C   0  0  0  0  0  0  0  0  0  0  0  0
  -24.9576   -0.9571  -10.8163 C   0  0  0  0  0  0  0  0  0  0  0  0
  -26.2373   -1.5096  -10.8970 C   0  0  0  0  0  0  0  0  0  0  0  0
  -27.8196   -2.3729  -13.4445 H   0  0  0  0  0  0  0  0  0  0  0  0
  -29.5188   -3.7845   -4.5879 O   0  0  0  0  0  0  0  0  0  0  0  0
  -30.8279   -4.3357   -4.4703 C   0  0  0  0  0  0  0  0  0  0  0  0
  -30.7372   -5.5689   -3.5430 C   0  0  0  0  0  0  0  0  0  0  0  0
  -30.5190   -6.8546   -4.2366 N   0  0  0  0  0  0  0  0  0  0  0  0
  -30.9487   -6.7558   -5.6447 C   0  0  0  0  0  0  0  0  0  0  0  0
  -30.8125   -8.1021   -6.3625 C   0  0  0  0  0  0  0  0  0  0  0  0
  -29.3950   -8.6534   -6.2581 C   0  0  0  0  0  0  0  0  0  0  0  0
  -28.9317   -8.6584   -4.8094 C   0  0  0  0  0  0  0  0  0  0  0  0
  -29.1171   -7.2889   -4.1616 C   0  0  0  0  0  0  0  0  0  0  0  0
 11 12  1  0  0  0
 11 22  1  0  0  0
 12 13  1  0  0  0
 12 21  2  0  0  0
 13 14  2  0  0  0
 14 15  1  0  0  0
 14 19  1  0  0  0
 15 16  2  0  0  0
 16 17  1  0  0  0
 17 18  2  0  0  0
 18 19  1  0  0  0
 19 20  2  0  0  0
 20 21  1  0  0  0
 21  1  1  0  0  0
  1  2  2  0  0  0
  1  9  1  0  0  0
  2  3  1  0  0  0
  3  4  1  0  0  0
  3  8  2  0  0  0
  4  5  2  0  0  0
  5 23  1  0  0  0
  5  6  1  0  0  0
 23 24  1  0  0  0
 24 25  1  0  0  0
 25 26  1  0  0  0
 26 27  1  0  0  0
 26 31  1  0  0  0
 27 28  1  0  0  0
 28 29  1  0  0  0
 29 30  1  0  0  0
 30 31  1  0  0  0
  6  7  2  0  0  0
  7  8  1  0  0  0
  8  9  1  0  0  0
  9 10  1  0  0  0
M  END
> <minimizedAffinity>
-9.91405

$$$$
