CHEMBL3694646


 36 40  0  0  0  0  0  0  0  0999 V2000
  -29.1049   -2.8547   -5.2771 C   0  0  0  0  0  0  0  0  0  0  0  0
  -28.6844   -1.6410   -4.7592 C   0  0  0  0  0  0  0  0  0  0  0  0
  -28.0597   -0.8617   -5.6997 N   0  0  0  0  0  0  0  0  0  0  0  0
  -28.0883   -1.5649   -6.8104 C   0  0  0  0  0  0  0  0  0  0  0  0
  -27.5869   -1.2698   -8.1179 C   0  0  0  0  0  0  0  0  0  0  0  0
  -27.7503   -2.1386   -9.1494 C   0  0  0  0  0  0  0  0  0  0  0  0
  -28.4597   -3.4012   -8.8916 C   0  0  0  0  0  0  0  0  0  0  0  0
  -28.9466   -3.6741   -7.6736 C   0  0  0  0  0  0  0  0  0  0  0  0
  -28.7438   -2.7794   -6.6234 N   0  0  0  0  0  0  0  0  0  0  0  0
  -29.7822   -6.1543   -3.5204 C   0  0  0  0  0  0  0  0  0  0  0  0
  -31.1225   -5.9837   -3.1757 C   0  0  0  0  0  0  0  0  0  0  0  0
  -31.8310   -4.8728   -3.6230 C   0  0  0  0  0  0  0  0  0  0  0  0
  -31.1917   -3.9021   -4.3872 C   0  0  0  0  0  0  0  0  0  0  0  0
  -29.8167   -3.9754   -4.6420 C   0  0  0  0  0  0  0  0  0  0  0  0
  -29.1312   -5.1383   -4.2448 C   0  0  0  0  0  0  0  0  0  0  0  0
  -27.9759   -7.8384   -5.1870 O   0  0  0  0  0  0  0  0  0  0  0  0
  -28.2119   -8.0349   -4.0029 C   0  0  0  0  0  0  0  0  0  0  0  0
  -27.6060   -9.0708   -3.3240 N   0  0  0  0  0  0  0  0  0  0  0  0
  -29.0416   -7.3049   -3.1776 N   0  0  0  0  0  0  0  0  0  0  0  0
  -28.1260   -9.4499   -2.5461 H   0  0  0  0  0  0  0  0  0  0  0  0
  -29.0639   -7.5839   -2.2079 H   0  0  0  0  0  0  0  0  0  0  0  0
  -26.7951  -10.0321   -4.0845 C   0  0  0  0  0  0  0  0  0  0  0  0
  -25.2836   -9.7649   -4.0644 C   0  0  0  0  0  0  0  0  0  0  0  0
  -24.7759   -9.6393   -5.3132 F   0  0  0  0  0  0  0  0  0  0  0  0
  -24.9631   -8.6573   -3.3661 F   0  0  0  0  0  0  0  0  0  0  0  0
  -24.6394  -10.8100   -3.4869 F   0  0  0  0  0  0  0  0  0  0  0  0
  -27.2163   -1.7646  -10.4367 C   0  0  0  0  0  0  0  0  0  0  0  0
  -27.8898   -1.5530  -11.5540 N   0  0  0  0  0  0  0  0  0  0  0  0
  -27.0861   -1.1706  -12.6120 N   0  0  0  0  0  0  0  0  0  0  0  0
  -25.8108   -1.1121  -12.2953 C   0  0  0  0  0  0  0  0  0  0  0  0
  -25.5075   -1.5456  -10.6616 S   0  0  0  0  0  0  0  0  0  0  0  0
  -24.7732   -0.7760  -13.0975 N   0  0  0  0  0  0  0  0  0  0  0  0
  -24.6317   -1.2869  -13.9603 H   0  0  0  0  0  0  0  0  0  0  0  0
  -23.7945    0.1906  -12.6265 C   0  0  0  0  0  0  0  0  0  0  0  0
  -23.0943    1.0828  -13.6163 C   0  0  0  0  0  0  0  0  0  0  0  0
  -22.3250    0.0202  -12.8890 C   0  0  0  0  0  0  0  0  0  0  0  0
 16 17  2  0  0  0
 17 18  1  0  0  0
 17 19  1  0  0  0
 18 22  1  0  0  0
 18 20  1  0  0  0
 22 23  1  0  0  0
 23 24  1  0  0  0
 23 25  1  0  0  0
 23 26  1  0  0  0
 19 10  1  0  0  0
 19 21  1  0  0  0
 10 11  1  0  0  0
 10 15  2  0  0  0
 11 12  2  0  0  0
 12 13  1  0  0  0
 13 14  2  0  0  0
 14  1  1  0  0  0
 14 15  1  0  0  0
  1  2  2  0  0  0
  1  9  1  0  0  0
  2  3  1  0  0  0
  3  4  2  0  0  0
  4  5  1  0  0  0
  4  9  1  0  0  0
  5  6  2  0  0  0
  6 27  1  0  0  0
  6  7  1  0  0  0
 27 28  2  0  0  0
 27 31  1  0  0  0
 28 29  1  0  0  0
 29 30  2  0  0  0
 30 32  1  0  0  0
 30 31  1  0  0  0
 32 34  1  0  0  0
 32 33  1  0  0  0
 34 35  1  0  0  0
 34 36  1  0  0  0
 35 36  1  0  0  0
  7  8  2  0  0  0
  8  9  1  0  0  0
M  END
> <minimizedAffinity>
-9.38007

$$$$
