CHEMBL3924380


 34 38  0  0  0  0  0  0  0  0999 V2000
  -14.2209    0.7397  -13.7097 C   0  0  0  0  0  0  0  0  0  0  0  0
  -14.3669    1.6120  -14.7888 C   0  0  0  0  0  0  0  0  0  0  0  0
  -15.6291    2.0556  -15.2050 C   0  0  0  0  0  0  0  0  0  0  0  0
  -15.8208    2.9043  -16.3086 C   0  0  0  0  0  0  0  0  0  0  0  0
  -17.0165    3.4105  -16.6125 N   0  0  0  0  0  0  0  0  0  0  0  0
  -18.0359    3.0052  -15.8486 C   0  0  0  0  0  0  0  0  0  0  0  0
  -17.9794    2.1351  -14.8279 N   0  0  0  0  0  0  0  0  0  0  0  0
  -16.7690    1.6632  -14.5019 C   0  0  0  0  0  0  0  0  0  0  0  0
  -16.6232    0.7488  -13.4559 C   0  0  0  0  0  0  0  0  0  0  0  0
  -15.3693    0.2609  -13.0504 C   0  0  0  0  0  0  0  0  0  0  0  0
  -11.9142    1.2507  -13.4886 C   0  0  0  0  0  0  0  0  0  0  0  0
  -12.9833    0.3214  -13.2815 O   0  0  0  0  0  0  0  0  0  0  0  0
  -14.6956    3.1613  -17.1620 N   0  0  0  0  0  0  0  0  0  0  0  0
  -14.7898    2.5786  -17.9880 H   0  0  0  0  0  0  0  0  0  0  0  0
  -14.2288    4.4450  -17.5219 C   0  0  0  0  0  0  0  0  0  0  0  0
  -13.2101    5.0704  -16.7960 C   0  0  0  0  0  0  0  0  0  0  0  0
  -12.7829    6.3562  -17.1376 C   0  0  0  0  0  0  0  0  0  0  0  0
  -11.5158    7.0528  -16.1930 Cl  0  0  0  0  0  0  0  0  0  0  0  0
  -13.3771    7.0294  -18.2132 C   0  0  0  0  0  0  0  0  0  0  0  0
  -12.9603    8.6530  -18.6289 Cl  0  0  0  0  0  0  0  0  0  0  0  0
  -14.3524    6.3909  -18.9810 C   0  0  0  0  0  0  0  0  0  0  0  0
  -14.7558    5.1059  -18.6386 C   0  0  0  0  0  0  0  0  0  0  0  0
  -15.6846    4.4925  -19.3911 F   0  0  0  0  0  0  0  0  0  0  0  0
  -15.1834   -0.7074  -12.0980 O   0  0  0  0  0  0  0  0  0  0  0  0
  -15.7614   -2.0171  -12.2070 C   0  0  0  0  0  0  0  0  0  0  0  0
  -15.7866   -2.8085  -10.9024 C   0  0  0  0  0  0  0  0  0  0  0  0
  -15.3868   -4.2054  -11.3012 C   0  0  0  0  0  0  0  0  0  0  0  0
  -16.4724   -5.1417  -11.2285 O   0  0  0  0  0  0  0  0  0  0  0  0
  -16.2259   -6.0788  -12.2900 C   0  0  0  0  0  0  0  0  0  0  0  0
  -15.7757   -5.2166  -13.4595 C   0  0  0  0  0  0  0  0  0  0  0  0
  -14.9532   -4.1380  -12.7532 C   0  0  0  0  0  0  0  0  0  0  0  0
  -15.2301   -2.8284  -13.2614 O   0  0  0  0  0  0  0  0  0  0  0  0
  -15.0194   -5.9990  -14.3833 O   0  0  0  0  0  0  0  0  0  0  0  0
  -14.8897   -7.3552  -13.9701 C   0  0  0  0  0  0  0  0  0  0  0  0
 11 12  1  0  0  0
 12  1  1  0  0  0
  1  2  1  0  0  0
  1 10  2  0  0  0
  2  3  2  0  0  0
  3  4  1  0  0  0
  3  8  1  0  0  0
  4 13  1  0  0  0
  4  5  2  0  0  0
 13 15  1  0  0  0
 13 14  1  0  0  0
 15 16  1  0  0  0
 15 22  2  0  0  0
 16 17  2  0  0  0
 17 18  1  0  0  0
 17 19  1  0  0  0
 19 20  1  0  0  0
 19 21  2  0  0  0
 21 22  1  0  0  0
 22 23  1  0  0  0
  5  6  1  0  0  0
  6  7  2  0  0  0
  7  8  1  0  0  0
  8  9  2  0  0  0
  9 10  1  0  0  0
 10 24  1  0  0  0
 24 25  1  0  0  0
 25 26  1  0  0  0
 25 32  1  0  0  0
 26 27  1  0  0  0
 27 28  1  0  0  0
 27 31  1  0  0  0
 28 29  1  0  0  0
 29 30  1  0  0  0
 30 33  1  0  0  0
 30 31  1  0  0  0
 33 34  1  0  0  0
 31 32  1  0  0  0
M  END
> <minimizedAffinity>
-7.75496

$$$$
