CHEMBL4445335


 47 52  0  0  0  0  0  0  0  0999 V2000
  -29.1104   -8.3143   -7.2611 C   0  0  0  0  0  0  0  0  0  0  0  0
  -30.2618   -7.7793   -7.8384 C   0  0  0  0  0  0  0  0  0  0  0  0
  -30.6248   -6.4513   -7.6216 C   0  0  0  0  0  0  0  0  0  0  0  0
  -29.8772   -5.6193   -6.7880 C   0  0  0  0  0  0  0  0  0  0  0  0
  -28.7290   -6.1576   -6.1909 C   0  0  0  0  0  0  0  0  0  0  0  0
  -28.3590   -7.5013   -6.4031 C   0  0  0  0  0  0  0  0  0  0  0  0
  -27.7265   -9.9286   -8.5089 C   0  0  0  0  0  0  0  0  0  0  0  0
  -27.1014   -9.1287   -9.1974 O   0  0  0  0  0  0  0  0  0  0  0  0
  -28.6825   -9.6333   -7.5517 N   0  0  0  0  0  0  0  0  0  0  0  0
  -28.9632  -10.3720   -6.9162 H   0  0  0  0  0  0  0  0  0  0  0  0
  -27.3195  -11.3624   -8.6289 C   0  0  0  0  0  0  0  0  0  0  0  0
  -28.3610  -12.4626   -8.7772 C   0  0  0  0  0  0  0  0  0  0  0  0
  -27.6174  -12.0107   -9.9923 C   0  0  0  0  0  0  0  0  0  0  0  0
  -25.8267  -11.1073   -6.7594 N   0  0  0  0  0  0  0  0  0  0  0  0
  -26.0005  -11.6919   -8.0027 C   0  0  0  0  0  0  0  0  0  0  0  0
  -25.2273  -12.4266   -8.6039 O   0  0  0  0  0  0  0  0  0  0  0  0
  -26.6225  -10.5932   -6.3847 H   0  0  0  0  0  0  0  0  0  0  0  0
  -21.3479  -11.7755   -3.2495 C   0  0  0  0  0  0  0  0  0  0  0  0
  -22.5211  -11.5809   -4.1611 C   0  0  0  0  0  0  0  0  0  0  0  0
  -22.3922  -10.8230   -5.3249 C   0  0  0  0  0  0  0  0  0  0  0  0
  -23.4745  -10.6532   -6.1894 C   0  0  0  0  0  0  0  0  0  0  0  0
  -24.7106  -11.2407   -5.9088 C   0  0  0  0  0  0  0  0  0  0  0  0
  -24.8471  -11.9925   -4.7357 C   0  0  0  0  0  0  0  0  0  0  0  0
  -23.7603  -12.1622   -3.8676 C   0  0  0  0  0  0  0  0  0  0  0  0
  -30.2150   -4.2577   -6.6158 N   0  0  0  0  0  0  0  0  0  0  0  0
  -30.7369   -4.0917   -5.7612 H   0  0  0  0  0  0  0  0  0  0  0  0
  -29.3314   -3.1745   -6.7758 C   0  0  0  0  0  0  0  0  0  0  0  0
  -28.9610   -2.4893   -5.6877 N   0  0  0  0  0  0  0  0  0  0  0  0
  -28.1211   -1.4408   -5.8934 C   0  0  0  0  0  0  0  0  0  0  0  0
  -27.6276   -1.0609   -7.1216 C   0  0  0  0  0  0  0  0  0  0  0  0
  -26.8234    0.0008   -7.2395 F   0  0  0  0  0  0  0  0  0  0  0  0
  -28.0367   -1.8132   -8.1931 C   0  0  0  0  0  0  0  0  0  0  0  0
  -28.8944   -2.8558   -8.0040 N   0  0  0  0  0  0  0  0  0  0  0  0
  -27.6403   -1.6362   -9.6189 C   0  0  0  0  0  0  0  0  0  0  0  0
  -28.6538   -1.8751  -10.5684 C   0  0  0  0  0  0  0  0  0  0  0  0
  -28.3767   -2.0140  -11.9140 C   0  0  0  0  0  0  0  0  0  0  0  0
  -29.3713   -2.3109  -12.7639 F   0  0  0  0  0  0  0  0  0  0  0  0
  -27.0756   -1.8220  -12.3719 C   0  0  0  0  0  0  0  0  0  0  0  0
  -26.6165   -1.9541  -13.6427 N   0  0  0  0  0  0  0  0  0  0  0  0
  -25.4132   -1.4399  -13.6444 C   0  0  0  0  0  0  0  0  0  0  0  0
  -24.7077   -1.1663  -14.9190 C   0  0  0  0  0  0  0  0  0  0  0  0
  -25.0077   -1.1022  -12.3586 N   0  0  0  0  0  0  0  0  0  0  0  0
  -26.0731   -1.3971  -11.4920 C   0  0  0  0  0  0  0  0  0  0  0  0
  -26.3244   -1.3316  -10.0904 C   0  0  0  0  0  0  0  0  0  0  0  0
  -23.7848   -0.3635  -12.0216 C   0  0  0  0  0  0  0  0  0  0  0  0
  -22.4866   -1.0365  -12.5037 C   0  0  0  0  0  0  0  0  0  0  0  0
  -23.8454    1.0773  -12.5510 C   0  0  0  0  0  0  0  0  0  0  0  0
 18 19  1  0  0  0
 19 20  1  0  0  0
 19 24  2  0  0  0
 20 21  2  0  0  0
 21 22  1  0  0  0
 22 14  1  0  0  0
 22 23  2  0  0  0
 14 15  1  0  0  0
 14 17  1  0  0  0
 15 16  2  0  0  0
 15 11  1  0  0  0
 11  7  1  0  0  0
 11 12  1  0  0  0
 11 13  1  0  0  0
  7  8  2  0  0  0
  7  9  1  0  0  0
  9  1  1  0  0  0
  9 10  1  0  0  0
  1  2  1  0  0  0
  1  6  2  0  0  0
  2  3  2  0  0  0
  3  4  1  0  0  0
  4 25  1  0  0  0
  4  5  2  0  0  0
 25 27  1  0  0  0
 25 26  1  0  0  0
 27 28  1  0  0  0
 27 33  2  0  0  0
 28 29  2  0  0  0
 29 30  1  0  0  0
 30 31  1  0  0  0
 30 32  2  0  0  0
 32 34  1  0  0  0
 32 33  1  0  0  0
 34 35  1  0  0  0
 34 44  2  0  0  0
 35 36  2  0  0  0
 36 37  1  0  0  0
 36 38  1  0  0  0
 38 39  1  0  0  0
 38 43  2  0  0  0
 39 40  2  0  0  0
 40 41  1  0  0  0
 40 42  1  0  0  0
 42 45  1  0  0  0
 42 43  1  0  0  0
 45 46  1  0  0  0
 45 47  1  0  0  0
 43 44  1  0  0  0
  5  6  1  0  0  0
 12 13  1  0  0  0
 23 24  1  0  0  0
M  END
> <minimizedAffinity>
-8.14381

$$$$
