CHEMBL363551


 40 42  0  0  0  0  0  0  0  0999 V2000
  -28.6768   -3.6490   -7.5287 C   0  0  0  0  0  0  0  0  0  0  0  0
  -28.1882   -4.7958   -8.1486 C   0  0  0  0  0  0  0  0  0  0  0  0
  -28.7677   -6.0273   -7.8938 C   0  0  0  0  0  0  0  0  0  0  0  0
  -28.2179   -7.1574   -8.3829 N   0  0  0  0  0  0  0  0  0  0  0  0
  -28.7772   -8.3495   -8.0627 C   0  0  0  0  0  0  0  0  0  0  0  0
  -29.8953   -8.5004   -7.2241 C   0  0  0  0  0  0  0  0  0  0  0  0
  -30.4584   -7.2971   -6.7529 C   0  0  0  0  0  0  0  0  0  0  0  0
  -29.8980   -6.0571   -7.0801 C   0  0  0  0  0  0  0  0  0  0  0  0
  -30.3894   -4.8535   -6.5823 C   0  0  0  0  0  0  0  0  0  0  0  0
  -29.7926   -3.6622   -6.7827 N   0  0  0  0  0  0  0  0  0  0  0  0
  -28.0642   -9.4651   -8.5124 N   0  0  0  0  0  0  0  0  0  0  0  0
  -27.0529  -10.1140   -7.8539 C   0  0  0  0  0  0  0  0  0  0  0  0
  -26.5656  -11.1136   -8.3731 O   0  0  0  0  0  0  0  0  0  0  0  0
  -26.6765   -9.6163   -6.6440 N   0  0  0  0  0  0  0  0  0  0  0  0
  -28.6400  -10.1595   -8.9742 H   0  0  0  0  0  0  0  0  0  0  0  0
  -27.3713   -9.0464   -6.1771 H   0  0  0  0  0  0  0  0  0  0  0  0
  -25.6390  -10.2150   -5.7826 C   0  0  0  0  0  0  0  0  0  0  0  0
  -24.2823  -10.2173   -6.5042 C   0  0  0  0  0  0  0  0  0  0  0  0
  -25.5120   -9.3538   -4.5102 C   0  0  0  0  0  0  0  0  0  0  0  0
  -25.9944  -11.6489   -5.3433 C   0  0  0  0  0  0  0  0  0  0  0  0
  -30.4513   -9.7881   -6.7347 C   0  0  0  0  0  0  0  0  0  0  0  0
  -31.5461  -10.4207   -7.3487 C   0  0  0  0  0  0  0  0  0  0  0  0
  -32.0714  -11.6151   -6.8450 C   0  0  0  0  0  0  0  0  0  0  0  0
  -31.4455  -12.2609   -5.7795 C   0  0  0  0  0  0  0  0  0  0  0  0
  -30.3272  -11.6890   -5.1831 C   0  0  0  0  0  0  0  0  0  0  0  0
  -29.8560  -10.4587   -5.6506 C   0  0  0  0  0  0  0  0  0  0  0  0
  -33.1775  -12.2466   -7.3513 O   0  0  0  0  0  0  0  0  0  0  0  0
  -34.3236  -12.2261   -6.5015 C   0  0  0  0  0  0  0  0  0  0  0  0
  -29.5981  -12.2120   -4.1516 O   0  0  0  0  0  0  0  0  0  0  0  0
  -30.1516  -12.0894   -2.8482 C   0  0  0  0  0  0  0  0  0  0  0  0
  -27.9424   -2.4687   -7.6722 N   0  0  0  0  0  0  0  0  0  0  0  0
  -26.9807   -2.6221   -7.3848 H   0  0  0  0  0  0  0  0  0  0  0  0
  -28.0721   -1.7989   -8.9673 C   0  0  0  0  0  0  0  0  0  0  0  0
  -26.6577   -1.5894   -9.5115 C   0  0  0  0  0  0  0  0  0  0  0  0
  -26.4463   -2.1125  -10.9384 C   0  0  0  0  0  0  0  0  0  0  0  0
  -26.1274   -1.1003  -11.9629 N   0  0  0  0  0  0  0  0  0  0  0  0
  -23.6651   -1.6306  -11.7604 C   0  0  0  0  0  0  0  0  0  0  0  0
  -24.7610   -0.5685  -11.8182 C   0  0  0  0  0  0  0  0  0  0  0  0
  -26.4367   -1.5943  -13.3174 C   0  0  0  0  0  0  0  0  0  0  0  0
  -27.8429   -2.1501  -13.5350 C   0  0  0  0  0  0  0  0  0  0  0  0
 37 38  1  0  0  0
 38 36  1  0  0  0
 36 39  1  0  0  0
 36 35  1  0  0  0
 39 40  1  0  0  0
 35 34  1  0  0  0
 34 33  1  0  0  0
 33 31  1  0  0  0
 31  1  1  0  0  0
 31 32  1  0  0  0
  1  2  1  0  0  0
  1 10  2  0  0  0
  2  3  2  0  0  0
  3  4  1  0  0  0
  3  8  1  0  0  0
  4  5  2  0  0  0
  5 11  1  0  0  0
  5  6  1  0  0  0
 11 12  1  0  0  0
 11 15  1  0  0  0
 12 13  2  0  0  0
 12 14  1  0  0  0
 14 17  1  0  0  0
 14 16  1  0  0  0
 17 18  1  0  0  0
 17 19  1  0  0  0
 17 20  1  0  0  0
  6 21  1  0  0  0
  6  7  2  0  0  0
 21 22  1  0  0  0
 21 26  2  0  0  0
 22 23  2  0  0  0
 23 27  1  0  0  0
 23 24  1  0  0  0
 27 28  1  0  0  0
 24 25  2  0  0  0
 25 29  1  0  0  0
 25 26  1  0  0  0
 29 30  1  0  0  0
  7  8  1  0  0  0
  8  9  2  0  0  0
  9 10  1  0  0  0
M  END
> <minimizedAffinity>
-7.33941

$$$$
