CHEMBL406661


 41 47  0  0  0  0  0  0  0  0999 V2000
  -12.9000    1.0651  -13.2955 C   0  0  0  0  0  0  0  0  0  0  0  0
  -11.6327    0.6851  -13.0801 N   0  0  0  0  0  0  0  0  0  0  0  0
  -11.3702   -0.6112  -13.1426 C   0  0  0  0  0  0  0  0  0  0  0  0
  -12.3459   -1.5428  -13.3673 C   0  0  0  0  0  0  0  0  0  0  0  0
  -11.9341   -2.9178  -13.1693 C   0  0  0  0  0  0  0  0  0  0  0  0
  -10.9593   -3.3394  -13.7767 O   0  0  0  0  0  0  0  0  0  0  0  0
  -12.6835   -3.6009  -12.2456 N   0  0  0  0  0  0  0  0  0  0  0  0
  -13.8028   -2.9100  -11.7378 C   0  0  0  0  0  0  0  0  0  0  0  0
  -14.6200   -3.2399  -10.7766 N   0  0  0  0  0  0  0  0  0  0  0  0
  -15.6764   -3.6237  -11.5284 C   0  0  0  0  0  0  0  0  0  0  0  0
  -16.4526   -4.7435  -11.2082 C   0  0  0  0  0  0  0  0  0  0  0  0
  -16.9380   -5.4909  -12.2658 C   0  0  0  0  0  0  0  0  0  0  0  0
  -16.8535   -4.9847  -13.5671 C   0  0  0  0  0  0  0  0  0  0  0  0
  -16.2822   -3.7053  -13.8768 C   0  0  0  0  0  0  0  0  0  0  0  0
  -15.6061   -3.0335  -12.8283 C   0  0  0  0  0  0  0  0  0  0  0  0
  -14.5221   -2.1067  -12.6431 N   0  0  0  0  0  0  0  0  0  0  0  0
  -13.6853   -1.1581  -13.3780 C   0  0  0  0  0  0  0  0  0  0  0  0
  -13.9698    0.1900  -13.3925 N   0  0  0  0  0  0  0  0  0  0  0  0
  -12.8936   -5.0010  -12.4490 C   0  0  0  0  0  0  0  0  0  0  0  0
  -12.7364   -5.8679  -11.3641 C   0  0  0  0  0  0  0  0  0  0  0  0
  -12.0931   -5.3213   -9.8551 Cl  0  0  0  0  0  0  0  0  0  0  0  0
  -13.0454   -7.2251  -11.4935 C   0  0  0  0  0  0  0  0  0  0  0  0
  -13.5370   -7.7308  -12.6938 C   0  0  0  0  0  0  0  0  0  0  0  0
  -13.6756   -6.8958  -13.7944 C   0  0  0  0  0  0  0  0  0  0  0  0
  -13.3179   -5.5477  -13.6948 C   0  0  0  0  0  0  0  0  0  0  0  0
  -13.4743   -4.6424  -15.1713 Cl  0  0  0  0  0  0  0  0  0  0  0  0
  -12.9145    2.4639  -13.3918 N   0  0  0  0  0  0  0  0  0  0  0  0
  -12.3087    2.7836  -12.6381 H   0  0  0  0  0  0  0  0  0  0  0  0
  -13.0755    5.1578  -16.6485 C   0  0  0  0  0  0  0  0  0  0  0  0
  -13.8191    3.9753  -16.6246 C   0  0  0  0  0  0  0  0  0  0  0  0
  -13.7603    3.0795  -15.5673 C   0  0  0  0  0  0  0  0  0  0  0  0
  -12.8935    3.2956  -14.5134 C   0  0  0  0  0  0  0  0  0  0  0  0
  -12.0873    4.4516  -14.5336 C   0  0  0  0  0  0  0  0  0  0  0  0
  -12.1706    5.3618  -15.5956 C   0  0  0  0  0  0  0  0  0  0  0  0
  -14.8380    9.4023  -19.7252 C   0  0  0  0  0  0  0  0  0  0  0  0
  -13.9993    8.2484  -19.4154 N   0  0  0  0  0  0  0  0  0  0  0  0
  -13.3105    8.4552  -18.1214 C   0  0  0  0  0  0  0  0  0  0  0  0
  -12.4295    7.2528  -17.7529 C   0  0  0  0  0  0  0  0  0  0  0  0
  -13.2742    6.0397  -17.6776 N   0  0  0  0  0  0  0  0  0  0  0  0
  -13.9816    5.7480  -18.9252 C   0  0  0  0  0  0  0  0  0  0  0  0
  -14.8041    6.9996  -19.3471 C   0  0  0  0  0  0  0  0  0  0  0  0
 35 36  1  0  0  0
 36 37  1  0  0  0
 36 41  1  0  0  0
 37 38  1  0  0  0
 38 39  1  0  0  0
 39 29  1  0  0  0
 39 40  1  0  0  0
 29 30  1  0  0  0
 29 34  2  0  0  0
 30 31  2  0  0  0
 31 32  1  0  0  0
 32 27  1  0  0  0
 32 33  2  0  0  0
 27  1  1  0  0  0
 27 28  1  0  0  0
  1  2  1  0  0  0
  1 18  2  0  0  0
  2  3  2  0  0  0
  3  4  1  0  0  0
  4  5  1  0  0  0
  4 17  2  0  0  0
  5  6  2  0  0  0
  5  7  1  0  0  0
  7 19  1  0  0  0
  7  8  1  0  0  0
 19 20  1  0  0  0
 19 25  2  0  0  0
 20 21  1  0  0  0
 20 22  2  0  0  0
 22 23  1  0  0  0
 23 24  2  0  0  0
 24 25  1  0  0  0
 25 26  1  0  0  0
  8  9  2  0  0  0
  8 16  1  0  0  0
  9 10  1  0  0  0
 10 11  1  0  0  0
 10 15  2  0  0  0
 11 12  2  0  0  0
 12 13  1  0  0  0
 13 14  2  0  0  0
 14 15  1  0  0  0
 15 16  1  0  0  0
 16 17  1  0  0  0
 17 18  1  0  0  0
 33 34  1  0  0  0
 40 41  1  0  0  0
M  END
> <minimizedAffinity>
-8.52737

$$$$
