CHEMBL495727


 32 36  0  0  0  0  0  0  0  0999 V2000
  -17.8536    2.7593  -15.3744 C   0  0  0  0  0  0  0  0  0  0  0  0
  -18.1903    1.5428  -15.7538 N   0  0  0  0  0  0  0  0  0  0  0  0
  -19.4462    1.3475  -15.2574 C   0  0  0  0  0  0  0  0  0  0  0  0
  -20.2299    0.1933  -15.2880 C   0  0  0  0  0  0  0  0  0  0  0  0
  -21.4966    0.2218  -14.7002 C   0  0  0  0  0  0  0  0  0  0  0  0
  -22.0078    1.3861  -14.0992 C   0  0  0  0  0  0  0  0  0  0  0  0
  -21.2065    2.5489  -14.0288 C   0  0  0  0  0  0  0  0  0  0  0  0
  -19.9313    2.4917  -14.6156 C   0  0  0  0  0  0  0  0  0  0  0  0
  -18.8854    3.3822  -14.7123 N   0  0  0  0  0  0  0  0  0  0  0  0
  -18.8276    4.3132  -14.3217 H   0  0  0  0  0  0  0  0  0  0  0  0
  -15.2869    2.5691  -15.5454 C   0  0  0  0  0  0  0  0  0  0  0  0
  -14.2937    3.5034  -15.6796 C   0  0  0  0  0  0  0  0  0  0  0  0
  -14.9162    4.7086  -15.8047 N   0  0  0  0  0  0  0  0  0  0  0  0
  -16.2640    4.6399  -15.7626 N   0  0  0  0  0  0  0  0  0  0  0  0
  -16.4903    3.3296  -15.5840 C   0  0  0  0  0  0  0  0  0  0  0  0
  -14.4808    5.6184  -15.9166 H   0  0  0  0  0  0  0  0  0  0  0  0
  -15.3291    1.0456  -13.0798 O   0  0  0  0  0  0  0  0  0  0  0  0
  -15.1902    0.5275  -14.1825 C   0  0  0  0  0  0  0  0  0  0  0  0
  -15.1788    1.1932  -15.3900 N   0  0  0  0  0  0  0  0  0  0  0  0
  -15.0398   -0.8403  -14.3539 N   0  0  0  0  0  0  0  0  0  0  0  0
  -15.2798    0.6646  -16.2506 H   0  0  0  0  0  0  0  0  0  0  0  0
  -14.8555   -1.1855  -15.2840 H   0  0  0  0  0  0  0  0  0  0  0  0
  -15.1046   -1.7781  -13.2751 C   0  0  0  0  0  0  0  0  0  0  0  0
  -14.1400   -2.9297  -13.1863 C   0  0  0  0  0  0  0  0  0  0  0  0
  -15.5753   -3.1837  -13.5399 C   0  0  0  0  0  0  0  0  0  0  0  0
  -23.3843    1.3190  -13.4631 C   0  0  0  0  0  0  0  0  0  0  0  0
  -23.5731    0.5224  -12.2529 N   0  0  0  0  0  0  0  0  0  0  0  0
  -22.6786   -0.6124  -12.0111 C   0  0  0  0  0  0  0  0  0  0  0  0
  -23.2085   -1.9834  -12.4748 C   0  0  0  0  0  0  0  0  0  0  0  0
  -24.5621   -2.2253  -12.0708 O   0  0  0  0  0  0  0  0  0  0  0  0
  -25.4348   -1.1553  -12.4466 C   0  0  0  0  0  0  0  0  0  0  0  0
  -24.9491    0.1873  -11.8916 C   0  0  0  0  0  0  0  0  0  0  0  0
 17 18  2  0  0  0
 18 19  1  0  0  0
 18 20  1  0  0  0
 19 11  1  0  0  0
 19 21  1  0  0  0
 11 12  2  0  0  0
 11 15  1  0  0  0
 12 13  1  0  0  0
 13 14  1  0  0  0
 13 16  1  0  0  0
 14 15  2  0  0  0
 15  1  1  0  0  0
  1  2  2  0  0  0
  1  9  1  0  0  0
  2  3  1  0  0  0
  3  4  1  0  0  0
  3  8  2  0  0  0
  4  5  2  0  0  0
  5  6  1  0  0  0
  6 26  1  0  0  0
  6  7  2  0  0  0
 26 27  1  0  0  0
 27 28  1  0  0  0
 27 32  1  0  0  0
 28 29  1  0  0  0
 29 30  1  0  0  0
 30 31  1  0  0  0
 31 32  1  0  0  0
  7  8  1  0  0  0
  8  9  1  0  0  0
  9 10  1  0  0  0
 20 23  1  0  0  0
 20 22  1  0  0  0
 23 24  1  0  0  0
 23 25  1  0  0  0
 24 25  1  0  0  0
M  END
> <minimizedAffinity>
-8.85075

$$$$
