CHEMBL3974626


 27 30  0  0  0  0  0  0  0  0999 V2000
  -13.0264   -0.4461  -14.1751 N   0  0  0  0  0  0  0  0  0  0  0  0
  -11.7831   -0.3436  -13.5446 C   0  0  0  0  0  0  0  0  0  0  0  0
  -11.4337   -0.8539  -12.4803 O   0  0  0  0  0  0  0  0  0  0  0  0
  -10.7922    0.4757  -14.3170 C   0  0  0  0  0  0  0  0  0  0  0  0
  -11.5626    0.8771  -15.8721 S   0  0  0  0  0  0  0  0  0  0  0  0
  -13.1342    0.2525  -15.3701 C   0  0  0  0  0  0  0  0  0  0  0  0
  -14.1070    0.6032  -16.1567 N   0  0  0  0  0  0  0  0  0  0  0  0
  -15.8498   -3.0870  -12.3462 C   0  0  0  0  0  0  0  0  0  0  0  0
  -15.0944   -3.5166  -13.4271 C   0  0  0  0  0  0  0  0  0  0  0  0
  -14.1768   -2.6483  -14.0336 C   0  0  0  0  0  0  0  0  0  0  0  0
  -14.0306   -1.3151  -13.6174 C   0  0  0  0  0  0  0  0  0  0  0  0
  -14.9397   -0.8646  -12.6548 C   0  0  0  0  0  0  0  0  0  0  0  0
  -15.7971   -1.7470  -11.9834 C   0  0  0  0  0  0  0  0  0  0  0  0
  -16.6866   -5.2555  -11.9835 C   0  0  0  0  0  0  0  0  0  0  0  0
  -16.6809   -3.8799  -11.6069 O   0  0  0  0  0  0  0  0  0  0  0  0
  -15.4146    0.5035  -15.8076 N   0  0  0  0  0  0  0  0  0  0  0  0
  -15.9665   -0.2379  -16.2176 H   0  0  0  0  0  0  0  0  0  0  0  0
  -16.1825    1.7152  -15.7106 C   0  0  0  0  0  0  0  0  0  0  0  0
  -15.5887    2.9241  -15.8671 N   0  0  0  0  0  0  0  0  0  0  0  0
  -16.3243    4.0819  -15.8666 N   0  0  0  0  0  0  0  0  0  0  0  0
  -17.6501    4.0164  -15.6676 C   0  0  0  0  0  0  0  0  0  0  0  0
  -18.3270    2.8186  -15.4681 C   0  0  0  0  0  0  0  0  0  0  0  0
  -19.7183    2.7882  -15.2493 C   0  0  0  0  0  0  0  0  0  0  0  0
  -20.3849    1.5774  -15.0970 C   0  0  0  0  0  0  0  0  0  0  0  0
  -19.6703    0.3838  -15.1601 C   0  0  0  0  0  0  0  0  0  0  0  0
  -18.2888    0.4076  -15.3457 C   0  0  0  0  0  0  0  0  0  0  0  0
  -17.5839    1.6230  -15.4979 C   0  0  0  0  0  0  0  0  0  0  0  0
 14 15  1  0  0  0
 15  8  1  0  0  0
  8  9  1  0  0  0
  8 13  2  0  0  0
  9 10  2  0  0  0
 10 11  1  0  0  0
 11  1  1  0  0  0
 11 12  2  0  0  0
  1  2  1  0  0  0
  1  6  1  0  0  0
  2  3  2  0  0  0
  2  4  1  0  0  0
  4  5  1  0  0  0
  5  6  1  0  0  0
  6  7  2  0  0  0
  7 16  1  0  0  0
 16 18  1  0  0  0
 16 17  1  0  0  0
 18 19  1  0  0  0
 18 27  2  0  0  0
 19 20  2  0  0  0
 20 21  1  0  0  0
 21 22  2  0  0  0
 22 23  1  0  0  0
 22 27  1  0  0  0
 23 24  2  0  0  0
 24 25  1  0  0  0
 25 26  2  0  0  0
 26 27  1  0  0  0
 12 13  1  0  0  0
M  END
> <minimizedAffinity>
-7.96434

$$$$
