CHEMBL3660281


 40 43  0  0  0  0  0  0  0  0999 V2000
  -28.4985   -3.0518   -7.1400 C   0  0  0  0  0  0  0  0  0  0  0  0
  -28.0101   -2.8646   -5.8446 C   0  0  0  0  0  0  0  0  0  0  0  0
  -28.1507   -3.8531   -4.8719 C   0  0  0  0  0  0  0  0  0  0  0  0
  -28.8710   -5.0110   -5.1506 C   0  0  0  0  0  0  0  0  0  0  0  0
  -29.3815   -5.2041   -6.4351 C   0  0  0  0  0  0  0  0  0  0  0  0
  -29.2020   -4.2271   -7.4250 C   0  0  0  0  0  0  0  0  0  0  0  0
  -26.8526   -3.3997   -9.4889 O   0  0  0  0  0  0  0  0  0  0  0  0
  -27.4941   -2.3719   -9.3089 C   0  0  0  0  0  0  0  0  0  0  0  0
  -28.2778   -2.1279   -8.1901 N   0  0  0  0  0  0  0  0  0  0  0  0
  -27.5401   -1.3274  -10.2173 N   0  0  0  0  0  0  0  0  0  0  0  0
  -28.8898   -1.3275   -8.2189 H   0  0  0  0  0  0  0  0  0  0  0  0
  -27.9883   -0.4761   -9.9158 H   0  0  0  0  0  0  0  0  0  0  0  0
  -26.9573   -1.3238  -11.5089 C   0  0  0  0  0  0  0  0  0  0  0  0
  -27.6354   -1.6843  -12.6694 C   0  0  0  0  0  0  0  0  0  0  0  0
  -26.9992   -1.6683  -13.9114 C   0  0  0  0  0  0  0  0  0  0  0  0
  -25.6684   -1.2675  -14.0209 C   0  0  0  0  0  0  0  0  0  0  0  0
  -24.9843   -1.3103  -15.6019 Cl  0  0  0  0  0  0  0  0  0  0  0  0
  -24.9672   -0.8636  -12.8821 C   0  0  0  0  0  0  0  0  0  0  0  0
  -25.6247   -0.9135  -11.6261 C   0  0  0  0  0  0  0  0  0  0  0  0
  -23.5508   -0.3500  -12.8962 C   0  0  0  0  0  0  0  0  0  0  0  0
  -23.3046    0.7545  -13.6426 F   0  0  0  0  0  0  0  0  0  0  0  0
  -23.1292   -0.0372  -11.6345 F   0  0  0  0  0  0  0  0  0  0  0  0
  -22.6736   -1.2970  -13.3391 F   0  0  0  0  0  0  0  0  0  0  0  0
  -29.0779   -6.0258   -4.2435 O   0  0  0  0  0  0  0  0  0  0  0  0
  -28.7552   -7.3205   -4.5894 C   0  0  0  0  0  0  0  0  0  0  0  0
  -29.6350   -8.2012   -5.2143 C   0  0  0  0  0  0  0  0  0  0  0  0
  -29.1921   -9.4818   -5.4835 C   0  0  0  0  0  0  0  0  0  0  0  0
  -27.9391   -9.9106   -5.2269 N   0  0  0  0  0  0  0  0  0  0  0  0
  -27.0830   -9.0155   -4.6721 C   0  0  0  0  0  0  0  0  0  0  0  0
  -27.4461   -7.7196   -4.3386 C   0  0  0  0  0  0  0  0  0  0  0  0
  -25.7359   -9.5410   -4.4713 C   0  0  0  0  0  0  0  0  0  0  0  0
  -25.1340  -10.2009   -3.4164 C   0  0  0  0  0  0  0  0  0  0  0  0
  -23.7682  -10.4554   -3.7515 C   0  0  0  0  0  0  0  0  0  0  0  0
  -23.5872   -9.9602   -5.0308 C   0  0  0  0  0  0  0  0  0  0  0  0
  -24.7759   -9.4208   -5.4516 N   0  0  0  0  0  0  0  0  0  0  0  0
  -24.9664   -8.9901   -6.3498 H   0  0  0  0  0  0  0  0  0  0  0  0
  -22.7876  -11.1308   -2.9094 C   0  0  0  0  0  0  0  0  0  0  0  0
  -21.6315  -11.3308   -3.2529 O   0  0  0  0  0  0  0  0  0  0  0  0
  -23.2678  -11.5601   -1.7148 O   0  0  0  0  0  0  0  0  0  0  0  0
  -24.2323  -11.4385   -1.6561 H   0  0  0  0  0  0  0  0  0  0  0  0
  7  8  2  0  0  0
  8  9  1  0  0  0
  8 10  1  0  0  0
  9  1  1  0  0  0
  9 11  1  0  0  0
  1  2  1  0  0  0
  1  6  2  0  0  0
  2  3  2  0  0  0
  3  4  1  0  0  0
  4 24  1  0  0  0
  4  5  2  0  0  0
 24 25  1  0  0  0
 25 26  1  0  0  0
 25 30  2  0  0  0
 26 27  2  0  0  0
 27 28  1  0  0  0
 28 29  2  0  0  0
 29 31  1  0  0  0
 29 30  1  0  0  0
 31 32  2  0  0  0
 31 35  1  0  0  0
 32 33  1  0  0  0
 33 37  1  0  0  0
 33 34  2  0  0  0
 37 38  2  0  0  0
 37 39  1  0  0  0
 39 40  1  0  0  0
 34 35  1  0  0  0
 35 36  1  0  0  0
  5  6  1  0  0  0
 10 13  1  0  0  0
 10 12  1  0  0  0
 13 14  1  0  0  0
 13 19  2  0  0  0
 14 15  2  0  0  0
 15 16  1  0  0  0
 16 17  1  0  0  0
 16 18  2  0  0  0
 18 20  1  0  0  0
 18 19  1  0  0  0
 20 21  1  0  0  0
 20 22  1  0  0  0
 20 23  1  0  0  0
M  END
> <minimizedAffinity>
-10.07703

$$$$
