CHEMBL3702643


 32 35  0  0  0  0  0  0  0  0999 V2000
  -28.6202   -4.1195   -7.0296 C   0  0  0  0  0  0  0  0  0  0  0  0
  -28.6203   -3.2837   -5.9032 C   0  0  0  0  0  0  0  0  0  0  0  0
  -28.2764   -1.9235   -5.9812 C   0  0  0  0  0  0  0  0  0  0  0  0
  -27.9029   -1.3565   -7.1976 C   0  0  0  0  0  0  0  0  0  0  0  0
  -27.8591   -2.1681   -8.3281 C   0  0  0  0  0  0  0  0  0  0  0  0
  -28.1977   -3.5286   -8.2288 C   0  0  0  0  0  0  0  0  0  0  0  0
  -32.8048   -9.8270   -7.8036 N   0  0  0  0  0  0  0  0  0  0  0  0
  -31.6756   -9.0353   -7.8339 C   0  0  0  0  0  0  0  0  0  0  0  0
  -30.6912   -9.4028   -8.6741 N   0  0  0  0  0  0  0  0  0  0  0  0
  -29.5945   -8.6196   -8.7195 C   0  0  0  0  0  0  0  0  0  0  0  0
  -29.4867   -7.4955   -7.9597 C   0  0  0  0  0  0  0  0  0  0  0  0
  -30.5555   -7.1990   -7.1506 C   0  0  0  0  0  0  0  0  0  0  0  0
  -31.6715   -7.9393   -7.0650 N   0  0  0  0  0  0  0  0  0  0  0  0
  -30.3094   -5.8973   -6.4299 C   0  0  0  0  0  0  0  0  0  0  0  0
  -29.0125   -5.4422   -6.9810 N   0  0  0  0  0  0  0  0  0  0  0  0
  -28.4202   -6.4717   -7.8650 C   0  0  0  0  0  0  0  0  0  0  0  0
  -32.8801  -10.3373   -8.6724 H   0  0  0  0  0  0  0  0  0  0  0  0
  -33.5998   -9.2728   -7.5198 H   0  0  0  0  0  0  0  0  0  0  0  0
  -27.5585   -1.6423   -9.6874 C   0  0  0  0  0  0  0  0  0  0  0  0
  -28.3967   -0.9001  -10.1947 O   0  0  0  0  0  0  0  0  0  0  0  0
  -26.3925   -2.0868  -10.2864 N   0  0  0  0  0  0  0  0  0  0  0  0
  -25.8939   -2.8426   -9.8310 H   0  0  0  0  0  0  0  0  0  0  0  0
  -25.9704   -1.7454  -11.5932 C   0  0  0  0  0  0  0  0  0  0  0  0
  -26.7114   -2.0524  -12.7390 C   0  0  0  0  0  0  0  0  0  0  0  0
  -26.2155   -1.7700  -14.0133 C   0  0  0  0  0  0  0  0  0  0  0  0
  -24.9686   -1.1721  -14.1584 C   0  0  0  0  0  0  0  0  0  0  0  0
  -24.2169   -0.8271  -13.0272 C   0  0  0  0  0  0  0  0  0  0  0  0
  -24.7398   -1.0962  -11.7455 C   0  0  0  0  0  0  0  0  0  0  0  0
  -22.8512   -0.2044  -13.1718 C   0  0  0  0  0  0  0  0  0  0  0  0
  -22.0534   -0.8376  -14.0766 F   0  0  0  0  0  0  0  0  0  0  0  0
  -22.9109    1.0958  -13.5708 F   0  0  0  0  0  0  0  0  0  0  0  0
  -22.1559   -0.2036  -12.0004 F   0  0  0  0  0  0  0  0  0  0  0  0
  7  8  1  0  0  0
  7 17  1  0  0  0
  7 18  1  0  0  0
  8  9  1  0  0  0
  8 13  2  0  0  0
  9 10  2  0  0  0
 10 11  1  0  0  0
 11 12  2  0  0  0
 11 16  1  0  0  0
 12 13  1  0  0  0
 12 14  1  0  0  0
 14 15  1  0  0  0
 15  1  1  0  0  0
 15 16  1  0  0  0
  1  2  1  0  0  0
  1  6  2  0  0  0
  2  3  2  0  0  0
  3  4  1  0  0  0
  4  5  2  0  0  0
  5 19  1  0  0  0
  5  6  1  0  0  0
 19 20  2  0  0  0
 19 21  1  0  0  0
 21 23  1  0  0  0
 21 22  1  0  0  0
 23 24  1  0  0  0
 23 28  2  0  0  0
 24 25  2  0  0  0
 25 26  1  0  0  0
 26 27  2  0  0  0
 27 29  1  0  0  0
 27 28  1  0  0  0
 29 30  1  0  0  0
 29 31  1  0  0  0
 29 32  1  0  0  0
M  END
> <minimizedAffinity>
-11.13992

$$$$
