CHEMBL3893131


 37 40  0  0  0  0  0  0  0  0999 V2000
  -14.1117    1.1731  -15.7030 C   0  0  0  0  0  0  0  0  0  0  0  0
  -14.5174    1.1121  -17.0432 C   0  0  0  0  0  0  0  0  0  0  0  0
  -14.3272    2.1899  -17.9154 C   0  0  0  0  0  0  0  0  0  0  0  0
  -13.7480    3.3755  -17.4664 C   0  0  0  0  0  0  0  0  0  0  0  0
  -13.3475    3.4552  -16.1304 C   0  0  0  0  0  0  0  0  0  0  0  0
  -13.5251    2.3652  -15.2579 C   0  0  0  0  0  0  0  0  0  0  0  0
  -14.7813   -3.4754  -11.7815 C   0  0  0  0  0  0  0  0  0  0  0  0
  -13.6482   -3.9694  -12.4368 C   0  0  0  0  0  0  0  0  0  0  0  0
  -13.0661   -3.2560  -13.4875 C   0  0  0  0  0  0  0  0  0  0  0  0
  -13.6293   -2.0311  -13.8918 C   0  0  0  0  0  0  0  0  0  0  0  0
  -13.3058   -1.1080  -14.9062 C   0  0  0  0  0  0  0  0  0  0  0  0
  -14.2018   -0.0469  -14.8732 C   0  0  0  0  0  0  0  0  0  0  0  0
  -15.1016   -0.3145  -13.8285 N   0  0  0  0  0  0  0  0  0  0  0  0
  -16.2155    0.4462  -13.4191 C   0  0  0  0  0  0  0  0  0  0  0  0
  -17.0080    0.8365  -14.4577 N   0  0  0  0  0  0  0  0  0  0  0  0
  -16.4601    0.6282  -12.2373 O   0  0  0  0  0  0  0  0  0  0  0  0
  -14.7374   -1.5244  -13.2199 C   0  0  0  0  0  0  0  0  0  0  0  0
  -15.3370   -2.2416  -12.1629 C   0  0  0  0  0  0  0  0  0  0  0  0
  -16.9208    0.4218  -15.3771 H   0  0  0  0  0  0  0  0  0  0  0  0
  -17.9044    1.2357  -14.2092 H   0  0  0  0  0  0  0  0  0  0  0  0
  -15.4502   -4.2308  -10.6841 C   0  0  0  0  0  0  0  0  0  0  0  0
  -14.9153   -4.5043   -9.6217 O   0  0  0  0  0  0  0  0  0  0  0  0
  -16.8040   -5.4928  -12.1127 C   0  0  0  0  0  0  0  0  0  0  0  0
  -16.7214   -4.5523  -11.0380 O   0  0  0  0  0  0  0  0  0  0  0  0
  -13.4890    4.4627  -18.3278 N   0  0  0  0  0  0  0  0  0  0  0  0
  -14.3388    5.5484  -18.5237 C   0  0  0  0  0  0  0  0  0  0  0  0
  -15.3223    5.8024  -17.8389 O   0  0  0  0  0  0  0  0  0  0  0  0
  -13.9566    6.2910  -19.6351 N   0  0  0  0  0  0  0  0  0  0  0  0
  -12.5386    4.5999  -18.6413 H   0  0  0  0  0  0  0  0  0  0  0  0
  -13.6106    5.7289  -20.3994 H   0  0  0  0  0  0  0  0  0  0  0  0
  -14.6374    7.4782  -19.9930 C   0  0  0  0  0  0  0  0  0  0  0  0
  -14.1697    8.7001  -19.5074 C   0  0  0  0  0  0  0  0  0  0  0  0
  -14.8097    9.8870  -19.8719 C   0  0  0  0  0  0  0  0  0  0  0  0
  -15.9581    9.8522  -20.6644 C   0  0  0  0  0  0  0  0  0  0  0  0
  -16.4685    8.6299  -21.1134 C   0  0  0  0  0  0  0  0  0  0  0  0
  -17.7411    8.5707  -21.9062 C   0  0  0  0  0  0  0  0  0  0  0  0
  -15.7812    7.4473  -20.7995 C   0  0  0  0  0  0  0  0  0  0  0  0
 23 24  1  0  0  0
 24 21  1  0  0  0
 21 22  2  0  0  0
 21  7  1  0  0  0
  7  8  1  0  0  0
  7 18  2  0  0  0
  8  9  2  0  0  0
  9 10  1  0  0  0
 10 11  1  0  0  0
 10 17  2  0  0  0
 11 12  2  0  0  0
 12  1  1  0  0  0
 12 13  1  0  0  0
  1  2  1  0  0  0
  1  6  2  0  0  0
  2  3  2  0  0  0
  3  4  1  0  0  0
  4 25  1  0  0  0
  4  5  2  0  0  0
 25 26  1  0  0  0
 25 29  1  0  0  0
 26 27  2  0  0  0
 26 28  1  0  0  0
 28 31  1  0  0  0
 28 30  1  0  0  0
 31 32  1  0  0  0
 31 37  2  0  0  0
 32 33  2  0  0  0
 33 34  1  0  0  0
 34 35  2  0  0  0
 35 36  1  0  0  0
 35 37  1  0  0  0
  5  6  1  0  0  0
 13 14  1  0  0  0
 13 17  1  0  0  0
 14 15  1  0  0  0
 14 16  2  0  0  0
 15 19  1  0  0  0
 15 20  1  0  0  0
 17 18  1  0  0  0
M  END
> <minimizedAffinity>
-7.77987

$$$$
