CHEMBL220532


 41 44  0  0  0  0  0  0  0  0999 V2000
  -27.5172   -2.0517   -9.2601 N   0  0  0  0  0  0  0  0  0  0  0  0
  -27.8565   -1.1335  -10.2536 C   0  0  0  0  0  0  0  0  0  0  0  0
  -28.6514   -0.2094  -10.1214 O   0  0  0  0  0  0  0  0  0  0  0  0
  -26.5451   -2.3347   -9.2934 H   0  0  0  0  0  0  0  0  0  0  0  0
  -27.1363   -1.2845  -11.5590 C   0  0  0  0  0  0  0  0  0  0  0  0
  -25.9416   -0.5756  -11.8095 C   0  0  0  0  0  0  0  0  0  0  0  0
  -25.2952   -0.6871  -13.0535 C   0  0  0  0  0  0  0  0  0  0  0  0
  -25.8426   -1.5062  -14.0489 C   0  0  0  0  0  0  0  0  0  0  0  0
  -27.0238   -2.2051  -13.8072 C   0  0  0  0  0  0  0  0  0  0  0  0
  -27.6593   -2.0903  -12.5737 C   0  0  0  0  0  0  0  0  0  0  0  0
  -28.7956   -2.7793  -12.4008 F   0  0  0  0  0  0  0  0  0  0  0  0
  -24.0801    0.0282  -13.3395 C   0  0  0  0  0  0  0  0  0  0  0  0
  -23.0905    0.6419  -13.6277 C   0  0  0  0  0  0  0  0  0  0  0  0
  -21.9201    1.3933  -13.9675 C   0  0  0  0  0  0  0  0  0  0  0  0
  -20.7313    0.8137  -14.3528 C   0  0  0  0  0  0  0  0  0  0  0  0
  -19.6221    1.5164  -14.6877 N   0  0  0  0  0  0  0  0  0  0  0  0
  -19.7152    2.8495  -14.6135 C   0  0  0  0  0  0  0  0  0  0  0  0
  -18.6006    3.5899  -14.9418 N   0  0  0  0  0  0  0  0  0  0  0  0
  -20.8252    3.5142  -14.2757 N   0  0  0  0  0  0  0  0  0  0  0  0
  -21.9038    2.7670  -13.9537 C   0  0  0  0  0  0  0  0  0  0  0  0
  -17.9956    3.0659  -15.5494 H   0  0  0  0  0  0  0  0  0  0  0  0
  -18.8794    4.5178  -15.2455 H   0  0  0  0  0  0  0  0  0  0  0  0
  -28.7683   -3.0290   -7.3442 C   0  0  0  0  0  0  0  0  0  0  0  0
  -29.3447   -2.7650   -6.0858 C   0  0  0  0  0  0  0  0  0  0  0  0
  -29.2561   -1.5186   -5.4655 C   0  0  0  0  0  0  0  0  0  0  0  0
  -28.5492   -0.4808   -6.0717 C   0  0  0  0  0  0  0  0  0  0  0  0
  -27.9202   -0.7216   -7.3016 C   0  0  0  0  0  0  0  0  0  0  0  0
  -28.0687   -1.9551   -7.9561 C   0  0  0  0  0  0  0  0  0  0  0  0
  -29.9821   -6.4055   -7.3379 C   0  0  0  0  0  0  0  0  0  0  0  0
  -28.8462   -7.1417   -8.0777 C   0  0  0  0  0  0  0  0  0  0  0  0
  -27.5847   -6.3038   -8.2620 C   0  0  0  0  0  0  0  0  0  0  0  0
  -27.8585   -4.8820   -8.7343 C   0  0  0  0  0  0  0  0  0  0  0  0
  -28.9024   -4.2930   -7.8971 N   0  0  0  0  0  0  0  0  0  0  0  0
  -30.1880   -4.9948   -7.9441 C   0  0  0  0  0  0  0  0  0  0  0  0
  -30.9555   -8.5941   -7.7204 C   0  0  0  0  0  0  0  0  0  0  0  0
  -31.2243   -7.2095   -7.3405 N   0  0  0  0  0  0  0  0  0  0  0  0
  -31.6101   -7.2032   -6.3938 H   0  0  0  0  0  0  0  0  0  0  0  0
  -28.5020    0.8873   -5.4465 C   0  0  0  0  0  0  0  0  0  0  0  0
  -27.5375    1.0182   -4.4926 F   0  0  0  0  0  0  0  0  0  0  0  0
  -28.2609    1.8691   -6.3580 F   0  0  0  0  0  0  0  0  0  0  0  0
  -29.6735    1.2211   -4.8376 F   0  0  0  0  0  0  0  0  0  0  0  0
 35 36  1  0  0  0
 36 37  1  0  0  0
 29 30  1  0  0  0
 29 34  1  0  0  0
 29 36  1  0  0  0
 30 31  1  0  0  0
 31 32  1  0  0  0
 32 33  1  0  0  0
 33 23  1  0  0  0
 33 34  1  0  0  0
 23 24  1  0  0  0
 23 28  2  0  0  0
 24 25  2  0  0  0
 25 26  1  0  0  0
 26 38  1  0  0  0
 26 27  2  0  0  0
 38 39  1  0  0  0
 38 40  1  0  0  0
 38 41  1  0  0  0
 27 28  1  0  0  0
 28  1  1  0  0  0
  1  2  1  0  0  0
  1  4  1  0  0  0
  2  3  2  0  0  0
  2  5  1  0  0  0
  5  6  1  0  0  0
  5 10  2  0  0  0
  6  7  2  0  0  0
  7 12  1  0  0  0
  7  8  1  0  0  0
 12 13  3  0  0  0
 13 14  1  0  0  0
 14 15  1  0  0  0
 14 20  2  0  0  0
 15 16  2  0  0  0
 16 17  1  0  0  0
 17 18  1  0  0  0
 17 19  2  0  0  0
 18 21  1  0  0  0
 18 22  1  0  0  0
 19 20  1  0  0  0
  8  9  2  0  0  0
  9 10  1  0  0  0
 10 11  1  0  0  0
M  END
> <minimizedAffinity>
-9.44663

$$$$
