CHEMBL3741916


 44 48  0  0  0  0  0  0  0  0999 V2000
  -22.8230   -0.5444  -12.4583 C   0  0  0  0  0  0  0  0  0  0  0  0
  -22.7937   -1.0754  -13.7457 C   0  0  0  0  0  0  0  0  0  0  0  0
  -21.9874   -0.4735  -14.7088 C   0  0  0  0  0  0  0  0  0  0  0  0
  -21.2986    0.7264  -14.4082 C   0  0  0  0  0  0  0  0  0  0  0  0
  -20.4983    1.4169  -15.3337 C   0  0  0  0  0  0  0  0  0  0  0  0
  -21.1452    2.5658  -15.7441 C   0  0  0  0  0  0  0  0  0  0  0  0
  -21.6829    3.3586  -14.7349 C   0  0  0  0  0  0  0  0  0  0  0  0
  -21.8072    2.8250  -13.4385 C   0  0  0  0  0  0  0  0  0  0  0  0
  -21.7438    1.4341  -13.2889 C   0  0  0  0  0  0  0  0  0  0  0  0
  -22.3346    0.7424  -12.2293 C   0  0  0  0  0  0  0  0  0  0  0  0
  -19.0660    1.8010  -14.7729 C   0  0  0  0  0  0  0  0  0  0  0  0
  -18.8253    2.9478  -14.4063 O   0  0  0  0  0  0  0  0  0  0  0  0
  -18.1320    0.7522  -14.7608 N   0  0  0  0  0  0  0  0  0  0  0  0
  -18.4973   -0.1599  -15.0078 H   0  0  0  0  0  0  0  0  0  0  0  0
  -16.7325    0.7770  -14.5430 C   0  0  0  0  0  0  0  0  0  0  0  0
  -16.0988    0.3387  -13.3823 C   0  0  0  0  0  0  0  0  0  0  0  0
  -14.6976    0.4065  -13.2689 C   0  0  0  0  0  0  0  0  0  0  0  0
  -13.9144    0.9042  -14.3084 C   0  0  0  0  0  0  0  0  0  0  0  0
  -14.5249    1.3619  -15.4821 C   0  0  0  0  0  0  0  0  0  0  0  0
  -15.9309    1.3006  -15.5784 C   0  0  0  0  0  0  0  0  0  0  0  0
  -13.6971    1.9030  -16.6247 C   0  0  0  0  0  0  0  0  0  0  0  0
  -13.1876    3.1460  -16.4032 F   0  0  0  0  0  0  0  0  0  0  0  0
  -12.6300    1.1072  -16.9152 F   0  0  0  0  0  0  0  0  0  0  0  0
  -14.4127    1.9940  -17.7817 F   0  0  0  0  0  0  0  0  0  0  0  0
  -23.4749   -1.2683  -11.4927 O   0  0  0  0  0  0  0  0  0  0  0  0
  -26.7334   -2.1119  -10.4923 C   0  0  0  0  0  0  0  0  0  0  0  0
  -27.5489   -1.5655  -11.4088 N   0  0  0  0  0  0  0  0  0  0  0  0
  -26.9694   -0.8450  -12.3855 C   0  0  0  0  0  0  0  0  0  0  0  0
  -25.6133   -0.6652  -12.4903 C   0  0  0  0  0  0  0  0  0  0  0  0
  -24.8545   -1.3072  -11.5362 C   0  0  0  0  0  0  0  0  0  0  0  0
  -25.3991   -1.9975  -10.5204 N   0  0  0  0  0  0  0  0  0  0  0  0
  -27.3530   -2.8564   -9.4816 N   0  0  0  0  0  0  0  0  0  0  0  0
  -27.9610   -3.5162   -9.9516 H   0  0  0  0  0  0  0  0  0  0  0  0
  -29.1749   -2.6504   -6.2108 C   0  0  0  0  0  0  0  0  0  0  0  0
  -28.8921   -1.3234   -5.8738 C   0  0  0  0  0  0  0  0  0  0  0  0
  -28.1504   -0.5204   -6.7436 C   0  0  0  0  0  0  0  0  0  0  0  0
  -27.6555   -1.0310   -7.9375 C   0  0  0  0  0  0  0  0  0  0  0  0
  -27.9296   -2.3554   -8.3038 C   0  0  0  0  0  0  0  0  0  0  0  0
  -28.6766   -3.1544   -7.4261 C   0  0  0  0  0  0  0  0  0  0  0  0
  -29.8827   -3.5787   -5.2505 C   0  0  0  0  0  0  0  0  0  0  0  0
  -29.3602   -5.7201   -3.4724 C   0  0  0  0  0  0  0  0  0  0  0  0
  -28.8706   -4.0546   -3.8537 S   0  0  0  0  0  0  0  0  0  0  0  0
  -29.1860   -3.2178   -2.7102 O   0  0  0  0  0  0  0  0  0  0  0  0
  -27.4991   -4.1216   -4.3313 O   0  0  0  0  0  0  0  0  0  0  0  0
 41 42  1  0  0  0
 42 43  2  0  0  0
 42 44  2  0  0  0
 42 40  1  0  0  0
 40 34  1  0  0  0
 34 35  1  0  0  0
 34 39  2  0  0  0
 35 36  2  0  0  0
 36 37  1  0  0  0
 37 38  2  0  0  0
 38 32  1  0  0  0
 38 39  1  0  0  0
 32 26  1  0  0  0
 32 33  1  0  0  0
 26 27  1  0  0  0
 26 31  2  0  0  0
 27 28  2  0  0  0
 28 29  1  0  0  0
 29 30  2  0  0  0
 30 25  1  0  0  0
 30 31  1  0  0  0
 25  1  1  0  0  0
  1  2  1  0  0  0
  1 10  2  0  0  0
  2  3  2  0  0  0
  3  4  1  0  0  0
  4  5  1  0  0  0
  4  9  2  0  0  0
  5 11  1  0  0  0
  5  6  2  0  0  0
 11 12  2  0  0  0
 11 13  1  0  0  0
 13 15  1  0  0  0
 13 14  1  0  0  0
 15 16  1  0  0  0
 15 20  2  0  0  0
 16 17  2  0  0  0
 17 18  1  0  0  0
 18 19  2  0  0  0
 19 21  1  0  0  0
 19 20  1  0  0  0
 21 22  1  0  0  0
 21 23  1  0  0  0
 21 24  1  0  0  0
  6  7  1  0  0  0
  7  8  2  0  0  0
  8  9  1  0  0  0
  9 10  1  0  0  0
M  END
> <minimizedAffinity>
-9.80733

$$$$
