CHEMBL4073523


 30 33  0  0  0  0  0  0  0  0999 V2000
  -29.4715   -6.8507   -6.3637 C   0  0  0  0  0  0  0  0  0  0  0  0
  -29.5953   -5.8135   -5.4297 C   0  0  0  0  0  0  0  0  0  0  0  0
  -29.2214   -4.5207   -5.8298 C   0  0  0  0  0  0  0  0  0  0  0  0
  -29.2233   -3.3420   -5.1182 N   0  0  0  0  0  0  0  0  0  0  0  0
  -28.7496   -2.3215   -5.8898 C   0  0  0  0  0  0  0  0  0  0  0  0
  -28.6255   -1.0530   -5.4785 N   0  0  0  0  0  0  0  0  0  0  0  0
  -28.1327   -0.2573   -6.4336 C   0  0  0  0  0  0  0  0  0  0  0  0
  -28.0561    1.0897   -6.1390 N   0  0  0  0  0  0  0  0  0  0  0  0
  -27.7056   -0.6342   -7.6485 N   0  0  0  0  0  0  0  0  0  0  0  0
  -27.8579   -1.9218   -8.0438 C   0  0  0  0  0  0  0  0  0  0  0  0
  -28.4285   -2.8283   -7.1344 C   0  0  0  0  0  0  0  0  0  0  0  0
  -28.7327   -4.2281   -7.1052 C   0  0  0  0  0  0  0  0  0  0  0  0
  -28.6146   -5.2840   -8.0350 C   0  0  0  0  0  0  0  0  0  0  0  0
  -28.9874   -6.5776   -7.6491 C   0  0  0  0  0  0  0  0  0  0  0  0
  -28.8865   -7.6021   -8.5550 O   0  0  0  0  0  0  0  0  0  0  0  0
  -29.5143   -3.2336   -4.1590 H   0  0  0  0  0  0  0  0  0  0  0  0
  -28.0066    1.2381   -5.1422 H   0  0  0  0  0  0  0  0  0  0  0  0
  -27.3764    1.5460   -6.7285 H   0  0  0  0  0  0  0  0  0  0  0  0
  -28.5170   -7.2585   -9.3831 H   0  0  0  0  0  0  0  0  0  0  0  0
  -28.8574   -8.8116   -5.1744 C   0  0  0  0  0  0  0  0  0  0  0  0
  -29.7430   -8.1660   -6.0789 O   0  0  0  0  0  0  0  0  0  0  0  0
  -27.4377   -2.3276   -9.2900 N   0  0  0  0  0  0  0  0  0  0  0  0
  -27.1418   -3.2883   -9.3791 H   0  0  0  0  0  0  0  0  0  0  0  0
  -27.8298   -1.6182  -10.4860 C   0  0  0  0  0  0  0  0  0  0  0  0
  -26.6411   -1.5947  -11.4275 C   0  0  0  0  0  0  0  0  0  0  0  0
  -26.8056   -1.6724  -12.8181 C   0  0  0  0  0  0  0  0  0  0  0  0
  -25.6967   -1.7032  -13.6634 C   0  0  0  0  0  0  0  0  0  0  0  0
  -24.4054   -1.6458  -13.1324 C   0  0  0  0  0  0  0  0  0  0  0  0
  -24.2272   -1.5430  -11.7536 C   0  0  0  0  0  0  0  0  0  0  0  0
  -25.3362   -1.5117  -10.9110 C   0  0  0  0  0  0  0  0  0  0  0  0
 20 21  1  0  0  0
 21  1  1  0  0  0
  1  2  1  0  0  0
  1 14  2  0  0  0
  2  3  2  0  0  0
  3  4  1  0  0  0
  3 12  1  0  0  0
  4  5  1  0  0  0
  4 16  1  0  0  0
  5  6  1  0  0  0
  5 11  2  0  0  0
  6  7  2  0  0  0
  7  8  1  0  0  0
  7  9  1  0  0  0
  8 17  1  0  0  0
  8 18  1  0  0  0
  9 10  2  0  0  0
 10 22  1  0  0  0
 10 11  1  0  0  0
 22 24  1  0  0  0
 22 23  1  0  0  0
 24 25  1  0  0  0
 25 26  1  0  0  0
 25 30  2  0  0  0
 26 27  2  0  0  0
 27 28  1  0  0  0
 28 29  2  0  0  0
 29 30  1  0  0  0
 11 12  1  0  0  0
 12 13  2  0  0  0
 13 14  1  0  0  0
 14 15  1  0  0  0
 15 19  1  0  0  0
M  END
> <minimizedAffinity>
-9.15765

$$$$
