CHEMBL593275


 41 46  0  0  0  0  0  0  0  0999 V2000
  -27.2117   -1.5174   -9.1005 C   0  0  0  0  0  0  0  0  0  0  0  0
  -26.4742   -0.8526  -10.0790 C   0  0  0  0  0  0  0  0  0  0  0  0
  -26.5765   -1.1693  -11.4404 C   0  0  0  0  0  0  0  0  0  0  0  0
  -25.7328   -0.6330  -12.4313 C   0  0  0  0  0  0  0  0  0  0  0  0
  -25.8992   -0.9527  -13.7202 N   0  0  0  0  0  0  0  0  0  0  0  0
  -26.8958   -1.7985  -14.0124 C   0  0  0  0  0  0  0  0  0  0  0  0
  -27.7152   -2.4020  -13.1411 N   0  0  0  0  0  0  0  0  0  0  0  0
  -27.5446   -2.0994  -11.8510 C   0  0  0  0  0  0  0  0  0  0  0  0
  -28.3499   -2.7069  -10.8830 C   0  0  0  0  0  0  0  0  0  0  0  0
  -28.2185   -2.4076   -9.5174 C   0  0  0  0  0  0  0  0  0  0  0  0
  -27.8574   -0.4849   -7.0345 C   0  0  0  0  0  0  0  0  0  0  0  0
  -26.9691   -1.3261   -7.7684 O   0  0  0  0  0  0  0  0  0  0  0  0
  -24.6455    0.2210  -12.0518 N   0  0  0  0  0  0  0  0  0  0  0  0
  -25.0055    1.0197  -11.5435 H   0  0  0  0  0  0  0  0  0  0  0  0
  -23.5241    0.5502  -12.8479 C   0  0  0  0  0  0  0  0  0  0  0  0
  -22.6488   -0.4348  -13.3265 C   0  0  0  0  0  0  0  0  0  0  0  0
  -21.4659   -0.0926  -14.0257 C   0  0  0  0  0  0  0  0  0  0  0  0
  -21.1491    1.2434  -14.3120 C   0  0  0  0  0  0  0  0  0  0  0  0
  -22.1070    2.2035  -13.9304 C   0  0  0  0  0  0  0  0  0  0  0  0
  -23.2685    1.8650  -13.2249 C   0  0  0  0  0  0  0  0  0  0  0  0
  -19.8498    1.6457  -14.9262 C   0  0  0  0  0  0  0  0  0  0  0  0
  -18.8028    0.8683  -15.2028 N   0  0  0  0  0  0  0  0  0  0  0  0
  -17.7034    1.6460  -15.6040 C   0  0  0  0  0  0  0  0  0  0  0  0
  -16.3957    1.2094  -15.9440 C   0  0  0  0  0  0  0  0  0  0  0  0
  -15.3849    2.1542  -16.2160 C   0  0  0  0  0  0  0  0  0  0  0  0
  -15.6586    3.5146  -16.1640 C   0  0  0  0  0  0  0  0  0  0  0  0
  -14.4016    4.6680  -16.4073 Cl  0  0  0  0  0  0  0  0  0  0  0  0
  -16.9437    3.9712  -15.9033 C   0  0  0  0  0  0  0  0  0  0  0  0
  -17.9382    3.0179  -15.6280 C   0  0  0  0  0  0  0  0  0  0  0  0
  -19.5774    3.3147  -15.2825 S   0  0  0  0  0  0  0  0  0  0  0  0
  -29.1523   -3.0397   -8.7162 O   0  0  0  0  0  0  0  0  0  0  0  0
  -28.6541   -4.1973   -8.0406 C   0  0  0  0  0  0  0  0  0  0  0  0
  -29.7586   -5.1497   -7.5834 C   0  0  0  0  0  0  0  0  0  0  0  0
  -29.2429   -6.0298   -6.4255 C   0  0  0  0  0  0  0  0  0  0  0  0
  -29.3966   -5.4269   -5.0885 N   0  0  0  0  0  0  0  0  0  0  0  0
  -28.2167   -4.6496   -4.6726 C   0  0  0  0  0  0  0  0  0  0  0  0
  -28.4087   -3.9689   -3.2974 C   0  0  0  0  0  0  0  0  0  0  0  0
  -29.5991   -3.1044   -3.1953 N   0  0  0  0  0  0  0  0  0  0  0  0
  -29.4300   -1.8658   -3.9517 C   0  0  0  0  0  0  0  0  0  0  0  0
  -30.7786   -3.8666   -3.6514 C   0  0  0  0  0  0  0  0  0  0  0  0
  -30.6135   -4.5913   -5.0130 C   0  0  0  0  0  0  0  0  0  0  0  0
 11 12  1  0  0  0
 12  1  1  0  0  0
  1  2  1  0  0  0
  1 10  2  0  0  0
  2  3  2  0  0  0
  3  4  1  0  0  0
  3  8  1  0  0  0
  4 13  1  0  0  0
  4  5  2  0  0  0
 13 15  1  0  0  0
 13 14  1  0  0  0
 15 16  1  0  0  0
 15 20  2  0  0  0
 16 17  2  0  0  0
 17 18  1  0  0  0
 18 21  1  0  0  0
 18 19  2  0  0  0
 21 22  2  0  0  0
 21 30  1  0  0  0
 22 23  1  0  0  0
 23 24  1  0  0  0
 23 29  2  0  0  0
 24 25  2  0  0  0
 25 26  1  0  0  0
 26 27  1  0  0  0
 26 28  2  0  0  0
 28 29  1  0  0  0
 29 30  1  0  0  0
 19 20  1  0  0  0
  5  6  1  0  0  0
  6  7  2  0  0  0
  7  8  1  0  0  0
  8  9  2  0  0  0
  9 10  1  0  0  0
 10 31  1  0  0  0
 31 32  1  0  0  0
 32 33  1  0  0  0
 33 34  1  0  0  0
 34 35  1  0  0  0
 35 36  1  0  0  0
 35 41  1  0  0  0
 36 37  1  0  0  0
 37 38  1  0  0  0
 38 39  1  0  0  0
 38 40  1  0  0  0
 40 41  1  0  0  0
M  END
> <minimizedAffinity>
-8.23099

$$$$
