CHEMBL219722


 31 34  0  0  0  0  0  0  0  0999 V2000
  -29.3524   -3.6485   -6.5597 C   0  0  0  0  0  0  0  0  0  0  0  0
  -29.5341   -3.9781   -7.9029 C   0  0  0  0  0  0  0  0  0  0  0  0
  -29.0302   -3.1740   -8.9286 C   0  0  0  0  0  0  0  0  0  0  0  0
  -28.2524   -2.0491   -8.6527 C   0  0  0  0  0  0  0  0  0  0  0  0
  -27.9670   -1.7611   -7.3179 C   0  0  0  0  0  0  0  0  0  0  0  0
  -28.5243   -2.5422   -6.2876 C   0  0  0  0  0  0  0  0  0  0  0  0
  -28.1605   -6.7945   -7.0124 N   0  0  0  0  0  0  0  0  0  0  0  0
  -28.9400   -6.8925   -5.9262 C   0  0  0  0  0  0  0  0  0  0  0  0
  -29.0487   -8.0579   -5.2960 N   0  0  0  0  0  0  0  0  0  0  0  0
  -29.8932   -7.7988   -4.2968 N   0  0  0  0  0  0  0  0  0  0  0  0
  -30.3341   -6.5068   -4.2428 C   0  0  0  0  0  0  0  0  0  0  0  0
  -31.2085   -5.8929   -3.3469 C   0  0  0  0  0  0  0  0  0  0  0  0
  -31.4593   -4.5404   -3.5222 C   0  0  0  0  0  0  0  0  0  0  0  0
  -30.8568   -3.8378   -4.5626 C   0  0  0  0  0  0  0  0  0  0  0  0
  -29.9747   -4.4509   -5.4864 C   0  0  0  0  0  0  0  0  0  0  0  0
  -29.7135   -5.8467   -5.3087 C   0  0  0  0  0  0  0  0  0  0  0  0
  -27.7759   -7.6577   -7.3791 H   0  0  0  0  0  0  0  0  0  0  0  0
  -28.3247   -6.0869   -7.7175 H   0  0  0  0  0  0  0  0  0  0  0  0
  -30.1336   -8.5585   -3.6686 H   0  0  0  0  0  0  0  0  0  0  0  0
  -27.7168   -1.2210   -9.6678 N   0  0  0  0  0  0  0  0  0  0  0  0
  -26.7050   -1.5965  -10.5307 C   0  0  0  0  0  0  0  0  0  0  0  0
  -26.2645   -2.7388  -10.6358 O   0  0  0  0  0  0  0  0  0  0  0  0
  -26.1975   -0.5167  -11.2439 N   0  0  0  0  0  0  0  0  0  0  0  0
  -28.2316   -0.3907   -9.9151 H   0  0  0  0  0  0  0  0  0  0  0  0
  -26.2212    0.3572  -10.7378 H   0  0  0  0  0  0  0  0  0  0  0  0
  -25.0947   -0.7079  -12.1112 C   0  0  0  0  0  0  0  0  0  0  0  0
  -23.7939   -0.3724  -11.7172 C   0  0  0  0  0  0  0  0  0  0  0  0
  -22.7420   -0.4262  -12.6309 C   0  0  0  0  0  0  0  0  0  0  0  0
  -22.9877   -0.8236  -13.9433 C   0  0  0  0  0  0  0  0  0  0  0  0
  -24.2740   -1.2014  -14.3284 C   0  0  0  0  0  0  0  0  0  0  0  0
  -25.3249   -1.1703  -13.4073 C   0  0  0  0  0  0  0  0  0  0  0  0
  7  8  1  0  0  0
  7 17  1  0  0  0
  7 18  1  0  0  0
  8  9  2  0  0  0
  8 16  1  0  0  0
  9 10  1  0  0  0
 10 11  1  0  0  0
 10 19  1  0  0  0
 11 12  1  0  0  0
 11 16  2  0  0  0
 12 13  2  0  0  0
 13 14  1  0  0  0
 14 15  2  0  0  0
 15  1  1  0  0  0
 15 16  1  0  0  0
  1  2  1  0  0  0
  1  6  2  0  0  0
  2  3  2  0  0  0
  3  4  1  0  0  0
  4 20  1  0  0  0
  4  5  2  0  0  0
 20 21  1  0  0  0
 20 24  1  0  0  0
 21 22  2  0  0  0
 21 23  1  0  0  0
 23 26  1  0  0  0
 23 25  1  0  0  0
 26 27  1  0  0  0
 26 31  2  0  0  0
 27 28  2  0  0  0
 28 29  1  0  0  0
 29 30  2  0  0  0
 30 31  1  0  0  0
  5  6  1  0  0  0
M  END
> <minimizedAffinity>
-9.46537

$$$$
