CHEMBL2031899


 39 43  0  0  0  0  0  0  0  0999 V2000
  -23.7446   -0.4133  -13.1027 C   0  0  0  0  0  0  0  0  0  0  0  0
  -23.6475    0.1893  -11.8548 C   0  0  0  0  0  0  0  0  0  0  0  0
  -24.4650   -0.2552  -10.7989 C   0  0  0  0  0  0  0  0  0  0  0  0
  -25.4465   -1.2468  -10.9802 C   0  0  0  0  0  0  0  0  0  0  0  0
  -25.6637   -1.7016  -12.2986 C   0  0  0  0  0  0  0  0  0  0  0  0
  -24.7967   -1.2991  -13.3346 C   0  0  0  0  0  0  0  0  0  0  0  0
  -26.1570   -1.8170   -9.8811 N   0  0  0  0  0  0  0  0  0  0  0  0
  -27.4753   -1.6089   -9.5113 C   0  0  0  0  0  0  0  0  0  0  0  0
  -28.2428   -0.8246  -10.0605 O   0  0  0  0  0  0  0  0  0  0  0  0
  -25.6154   -2.4111   -9.2613 H   0  0  0  0  0  0  0  0  0  0  0  0
  -27.9571   -2.4428   -8.3713 C   0  0  0  0  0  0  0  0  0  0  0  0
  -28.4742   -2.0475   -7.1854 C   0  0  0  0  0  0  0  0  0  0  0  0
  -28.5359   -0.6585   -6.6279 C   0  0  0  0  0  0  0  0  0  0  0  0
  -28.9884   -3.1198   -6.4434 N   0  0  0  0  0  0  0  0  0  0  0  0
  -29.1014   -3.1555   -4.9848 C   0  0  0  0  0  0  0  0  0  0  0  0
  -28.5470   -4.2832   -7.0842 N   0  0  0  0  0  0  0  0  0  0  0  0
  -27.9713   -3.9261   -8.3050 C   0  0  0  0  0  0  0  0  0  0  0  0
  -27.5593   -4.6583   -9.2000 O   0  0  0  0  0  0  0  0  0  0  0  0
  -29.0208   -5.5703   -6.7615 C   0  0  0  0  0  0  0  0  0  0  0  0
  -30.2063   -6.0361   -7.3438 C   0  0  0  0  0  0  0  0  0  0  0  0
  -30.6542   -7.3373   -7.0920 C   0  0  0  0  0  0  0  0  0  0  0  0
  -29.9458   -8.1622   -6.2209 C   0  0  0  0  0  0  0  0  0  0  0  0
  -28.7810   -7.6963   -5.6139 C   0  0  0  0  0  0  0  0  0  0  0  0
  -28.3114   -6.4108   -5.8958 C   0  0  0  0  0  0  0  0  0  0  0  0
  -26.5720   -2.6376  -12.7205 O   0  0  0  0  0  0  0  0  0  0  0  0
  -27.7990   -2.1869  -13.2786 C   0  0  0  0  0  0  0  0  0  0  0  0
  -22.8627   -0.2345  -14.1444 O   0  0  0  0  0  0  0  0  0  0  0  0
  -18.0888    1.4910  -15.4096 C   0  0  0  0  0  0  0  0  0  0  0  0
  -18.6295    0.2182  -15.4727 C   0  0  0  0  0  0  0  0  0  0  0  0
  -19.9810    0.0323  -15.2104 C   0  0  0  0  0  0  0  0  0  0  0  0
  -20.8078    1.0851  -14.7587 C   0  0  0  0  0  0  0  0  0  0  0  0
  -22.1475    0.9429  -14.3102 C   0  0  0  0  0  0  0  0  0  0  0  0
  -22.9024    2.0853  -14.0439 C   0  0  0  0  0  0  0  0  0  0  0  0
  -22.2890    3.3168  -14.1429 C   0  0  0  0  0  0  0  0  0  0  0  0
  -20.9880    3.4802  -14.4540 N   0  0  0  0  0  0  0  0  0  0  0  0
  -20.2600    2.3893  -14.7491 C   0  0  0  0  0  0  0  0  0  0  0  0
  -18.9139    2.5621  -15.0609 C   0  0  0  0  0  0  0  0  0  0  0  0
  -16.5292    3.1467  -16.0147 C   0  0  0  0  0  0  0  0  0  0  0  0
  -16.7773    1.7862  -15.6650 O   0  0  0  0  0  0  0  0  0  0  0  0
 38 39  1  0  0  0
 39 28  1  0  0  0
 28 29  1  0  0  0
 28 37  2  0  0  0
 29 30  2  0  0  0
 30 31  1  0  0  0
 31 32  1  0  0  0
 31 36  2  0  0  0
 32 27  1  0  0  0
 32 33  2  0  0  0
 27  1  1  0  0  0
  1  2  1  0  0  0
  1  6  2  0  0  0
  2  3  2  0  0  0
  3  4  1  0  0  0
  4  7  1  0  0  0
  4  5  2  0  0  0
  7  8  1  0  0  0
  7 10  1  0  0  0
  8  9  2  0  0  0
  8 11  1  0  0  0
 11 12  2  0  0  0
 11 17  1  0  0  0
 12 13  1  0  0  0
 12 14  1  0  0  0
 14 15  1  0  0  0
 14 16  1  0  0  0
 16 19  1  0  0  0
 16 17  1  0  0  0
 19 20  1  0  0  0
 19 24  2  0  0  0
 20 21  2  0  0  0
 21 22  1  0  0  0
 22 23  2  0  0  0
 23 24  1  0  0  0
 17 18  2  0  0  0
  5 25  1  0  0  0
  5  6  1  0  0  0
 25 26  1  0  0  0
 33 34  1  0  0  0
 34 35  2  0  0  0
 35 36  1  0  0  0
 36 37  1  0  0  0
M  END
> <minimizedAffinity>
-9.28844

$$$$
