CHEMBL3934657


 38 41  0  0  0  0  0  0  0  0999 V2000
  -28.4986   -3.0330   -5.4256 C   0  0  0  0  0  0  0  0  0  0  0  0
  -27.8399   -1.8081   -5.5569 C   0  0  0  0  0  0  0  0  0  0  0  0
  -27.6603   -1.2069   -6.8037 C   0  0  0  0  0  0  0  0  0  0  0  0
  -28.1517   -1.8027   -7.9663 C   0  0  0  0  0  0  0  0  0  0  0  0
  -28.7877   -3.0367   -7.8477 C   0  0  0  0  0  0  0  0  0  0  0  0
  -29.2833   -3.6418   -8.9404 F   0  0  0  0  0  0  0  0  0  0  0  0
  -28.9576   -3.6490   -6.6031 C   0  0  0  0  0  0  0  0  0  0  0  0
  -28.0372   -1.2021   -9.2455 N   0  0  0  0  0  0  0  0  0  0  0  0
  -27.0557   -1.4974  -10.1712 C   0  0  0  0  0  0  0  0  0  0  0  0
  -26.1475   -2.3043   -9.9971 O   0  0  0  0  0  0  0  0  0  0  0  0
  -27.1642   -0.7398  -11.3271 N   0  0  0  0  0  0  0  0  0  0  0  0
  -28.6935   -0.4585   -9.4509 H   0  0  0  0  0  0  0  0  0  0  0  0
  -27.5000    0.2009  -11.1835 H   0  0  0  0  0  0  0  0  0  0  0  0
  -26.2241   -0.9193  -12.3694 C   0  0  0  0  0  0  0  0  0  0  0  0
  -26.6053   -1.6418  -13.4986 C   0  0  0  0  0  0  0  0  0  0  0  0
  -25.7333   -1.7467  -14.5829 C   0  0  0  0  0  0  0  0  0  0  0  0
  -24.4631   -1.1694  -14.5248 C   0  0  0  0  0  0  0  0  0  0  0  0
  -24.0495   -0.4706  -13.3822 C   0  0  0  0  0  0  0  0  0  0  0  0
  -24.9444   -0.3493  -12.3073 C   0  0  0  0  0  0  0  0  0  0  0  0
  -22.6787    0.1540  -13.2996 C   0  0  0  0  0  0  0  0  0  0  0  0
  -22.0600   -0.0561  -12.1023 F   0  0  0  0  0  0  0  0  0  0  0  0
  -21.8206   -0.3171  -14.2455 F   0  0  0  0  0  0  0  0  0  0  0  0
  -22.7111    1.5064  -13.4630 F   0  0  0  0  0  0  0  0  0  0  0  0
  -28.8585   -2.7364   -3.0096 C   0  0  0  0  0  0  0  0  0  0  0  0
  -28.7032   -3.6257   -4.1685 N   0  0  0  0  0  0  0  0  0  0  0  0
  -29.0683   -4.9679   -3.8925 C   0  0  0  0  0  0  0  0  0  0  0  0
  -28.1383   -5.9966   -3.9991 C   0  0  0  0  0  0  0  0  0  0  0  0
  -28.5603   -7.2807   -3.7232 C   0  0  0  0  0  0  0  0  0  0  0  0
  -29.8148   -7.5444   -3.3571 N   0  0  0  0  0  0  0  0  0  0  0  0
  -30.6516   -6.5092   -3.2869 C   0  0  0  0  0  0  0  0  0  0  0  0
  -30.3415   -5.2358   -3.5478 N   0  0  0  0  0  0  0  0  0  0  0  0
  -27.6211   -8.3191   -3.8392 N   0  0  0  0  0  0  0  0  0  0  0  0
  -27.4175   -9.0444   -4.9936 C   0  0  0  0  0  0  0  0  0  0  0  0
  -27.9883   -8.9177   -6.0666 O   0  0  0  0  0  0  0  0  0  0  0  0
  -27.0739   -8.5486   -3.0253 H   0  0  0  0  0  0  0  0  0  0  0  0
  -26.3739  -10.1113   -4.8514 C   0  0  0  0  0  0  0  0  0  0  0  0
  -24.9131   -9.7606   -5.0438 C   0  0  0  0  0  0  0  0  0  0  0  0
  -25.6277  -10.5719   -6.0841 C   0  0  0  0  0  0  0  0  0  0  0  0
 24 25  1  0  0  0
 25  1  1  0  0  0
 25 26  1  0  0  0
  1  2  1  0  0  0
  1  7  2  0  0  0
  2  3  2  0  0  0
  3  4  1  0  0  0
  4  8  1  0  0  0
  4  5  2  0  0  0
  8  9  1  0  0  0
  8 12  1  0  0  0
  9 10  2  0  0  0
  9 11  1  0  0  0
 11 14  1  0  0  0
 11 13  1  0  0  0
 14 15  1  0  0  0
 14 19  2  0  0  0
 15 16  2  0  0  0
 16 17  1  0  0  0
 17 18  2  0  0  0
 18 20  1  0  0  0
 18 19  1  0  0  0
 20 21  1  0  0  0
 20 22  1  0  0  0
 20 23  1  0  0  0
  5  6  1  0  0  0
  5  7  1  0  0  0
 26 27  1  0  0  0
 26 31  2  0  0  0
 27 28  2  0  0  0
 28 32  1  0  0  0
 28 29  1  0  0  0
 32 33  1  0  0  0
 32 35  1  0  0  0
 33 34  2  0  0  0
 33 36  1  0  0  0
 36 37  1  0  0  0
 36 38  1  0  0  0
 37 38  1  0  0  0
 29 30  2  0  0  0
 30 31  1  0  0  0
M  END
> <minimizedAffinity>
-9.75561

$$$$
