CHEMBL3970712


 36 39  0  0  0  0  0  0  0  0999 V2000
  -27.2163  -10.6916   -7.0940 C   0  0  0  0  0  0  0  0  0  0  0  0
  -27.9633  -10.1301   -6.1115 N   0  0  0  0  0  0  0  0  0  0  0  0
  -28.9764   -9.3266   -6.4754 C   0  0  0  0  0  0  0  0  0  0  0  0
  -29.3091   -9.0923   -7.7565 N   0  0  0  0  0  0  0  0  0  0  0  0
  -28.5539   -9.6614   -8.7103 C   0  0  0  0  0  0  0  0  0  0  0  0
  -27.4728  -10.4716   -8.4399 C   0  0  0  0  0  0  0  0  0  0  0  0
  -26.5075  -11.0576   -9.7271 Cl  0  0  0  0  0  0  0  0  0  0  0  0
  -29.5793   -8.6207   -5.4334 N   0  0  0  0  0  0  0  0  0  0  0  0
  -29.9776   -9.3036   -4.8002 H   0  0  0  0  0  0  0  0  0  0  0  0
  -29.2454   -7.3908   -5.0019 C   0  0  0  0  0  0  0  0  0  0  0  0
  -27.9781   -6.8791   -4.6774 C   0  0  0  0  0  0  0  0  0  0  0  0
  -28.0520   -5.6388   -4.2047 N   0  0  0  0  0  0  0  0  0  0  0  0
  -29.3641   -5.3433   -4.2493 N   0  0  0  0  0  0  0  0  0  0  0  0
  -30.1258   -6.3705   -4.7369 C   0  0  0  0  0  0  0  0  0  0  0  0
  -29.8316   -4.0266   -3.8227 C   0  0  0  0  0  0  0  0  0  0  0  0
  -30.7320   -3.3707   -4.8700 C   0  0  0  0  0  0  0  0  0  0  0  0
  -29.9410   -2.8697   -6.0785 C   0  0  0  0  0  0  0  0  0  0  0  0
  -28.8050   -2.0040   -5.7200 N   0  0  0  0  0  0  0  0  0  0  0  0
  -27.9973   -1.7742   -6.9284 C   0  0  0  0  0  0  0  0  0  0  0  0
  -27.9325   -2.5722   -4.6788 C   0  0  0  0  0  0  0  0  0  0  0  0
  -28.6903   -3.0782   -3.4519 C   0  0  0  0  0  0  0  0  0  0  0  0
  -25.9368  -11.3654   -6.6505 C   0  0  0  0  0  0  0  0  0  0  0  0
  -24.6785  -10.4734   -6.5835 C   0  0  0  0  0  0  0  0  0  0  0  0
  -22.4070  -11.0530   -5.4325 C   0  0  0  0  0  0  0  0  0  0  0  0
  -21.7364  -11.4161   -4.2391 C   0  0  0  0  0  0  0  0  0  0  0  0
  -22.3730  -11.4182   -3.0033 C   0  0  0  0  0  0  0  0  0  0  0  0
  -23.7100  -11.0714   -2.9275 C   0  0  0  0  0  0  0  0  0  0  0  0
  -24.4066  -10.7598   -4.0932 C   0  0  0  0  0  0  0  0  0  0  0  0
  -23.7899  -10.7366   -5.3668 C   0  0  0  0  0  0  0  0  0  0  0  0
  -22.1467  -11.9084   -7.8035 C   0  0  0  0  0  0  0  0  0  0  0  0
  -21.5387  -11.0528   -6.6922 C   0  0  0  0  0  0  0  0  0  0  0  0
  -21.0450   -9.6802   -7.1482 C   0  0  0  0  0  0  0  0  0  0  0  0
  -21.8367   -8.6292   -6.7692 N   0  0  0  0  0  0  0  0  0  0  0  0
  -19.9968   -9.4786   -7.7498 O   0  0  0  0  0  0  0  0  0  0  0  0
  -22.7892   -8.7728   -6.4570 H   0  0  0  0  0  0  0  0  0  0  0  0
  -21.5736   -7.7101   -7.0990 H   0  0  0  0  0  0  0  0  0  0  0  0
 30 31  1  0  0  0
 31 32  1  0  0  0
 31 24  1  0  0  0
 32 33  1  0  0  0
 32 34  2  0  0  0
 33 35  1  0  0  0
 33 36  1  0  0  0
 24 25  1  0  0  0
 24 29  2  0  0  0
 25 26  2  0  0  0
 26 27  1  0  0  0
 27 28  2  0  0  0
 28 29  1  0  0  0
 29 23  1  0  0  0
 23 22  1  0  0  0
 22  1  1  0  0  0
  1  2  1  0  0  0
  1  6  2  0  0  0
  2  3  2  0  0  0
  3  8  1  0  0  0
  3  4  1  0  0  0
  8 10  1  0  0  0
  8  9  1  0  0  0
 10 11  1  0  0  0
 10 14  2  0  0  0
 11 12  2  0  0  0
 12 13  1  0  0  0
 13 15  1  0  0  0
 13 14  1  0  0  0
 15 16  1  0  0  0
 15 21  1  0  0  0
 16 17  1  0  0  0
 17 18  1  0  0  0
 18 19  1  0  0  0
 18 20  1  0  0  0
 20 21  1  0  0  0
  4  5  2  0  0  0
  5  6  1  0  0  0
  6  7  1  0  0  0
M  END
> <minimizedAffinity>
-8.77514

$$$$
