CHEMBL456683


 37 42  0  0  0  0  0  0  0  0999 V2000
  -28.4667   -3.4485   -6.2098 C   0  0  0  0  0  0  0  0  0  0  0  0
  -28.7894   -3.9663   -7.4635 C   0  0  0  0  0  0  0  0  0  0  0  0
  -28.7120   -3.1654   -8.5961 C   0  0  0  0  0  0  0  0  0  0  0  0
  -28.3474   -1.8162   -8.5136 C   0  0  0  0  0  0  0  0  0  0  0  0
  -28.2798   -1.2158   -7.2144 C   0  0  0  0  0  0  0  0  0  0  0  0
  -28.1776    0.1861   -7.0125 C   0  0  0  0  0  0  0  0  0  0  0  0
  -28.0939    0.7503   -5.7379 C   0  0  0  0  0  0  0  0  0  0  0  0
  -28.0915   -0.0708   -4.6217 C   0  0  0  0  0  0  0  0  0  0  0  0
  -28.1911   -1.4540   -4.7788 C   0  0  0  0  0  0  0  0  0  0  0  0
  -28.3094   -2.0518   -6.0534 C   0  0  0  0  0  0  0  0  0  0  0  0
  -28.0714   -1.0581   -9.6915 N   0  0  0  0  0  0  0  0  0  0  0  0
  -28.2937   -0.0792   -9.5747 H   0  0  0  0  0  0  0  0  0  0  0  0
  -27.0330   -1.2691  -10.5524 C   0  0  0  0  0  0  0  0  0  0  0  0
  -25.7605   -1.3992  -10.2541 N   0  0  0  0  0  0  0  0  0  0  0  0
  -24.9886   -1.5626  -11.3874 C   0  0  0  0  0  0  0  0  0  0  0  0
  -23.5879   -1.7227  -11.4151 C   0  0  0  0  0  0  0  0  0  0  0  0
  -22.9306   -1.8937  -12.6373 C   0  0  0  0  0  0  0  0  0  0  0  0
  -23.6510   -1.8949  -13.8272 C   0  0  0  0  0  0  0  0  0  0  0  0
  -25.0407   -1.7268  -13.8257 C   0  0  0  0  0  0  0  0  0  0  0  0
  -25.6917   -1.5687  -12.5896 C   0  0  0  0  0  0  0  0  0  0  0  0
  -27.3671   -1.3687  -12.2490 S   0  0  0  0  0  0  0  0  0  0  0  0
  -28.3609   -4.2867   -5.1020 O   0  0  0  0  0  0  0  0  0  0  0  0
  -29.8715   -6.1315   -4.6345 C   0  0  0  0  0  0  0  0  0  0  0  0
  -31.0416   -6.5229   -3.9425 C   0  0  0  0  0  0  0  0  0  0  0  0
  -31.8167   -5.6130   -3.2299 C   0  0  0  0  0  0  0  0  0  0  0  0
  -31.4325   -4.2935   -3.2495 C   0  0  0  0  0  0  0  0  0  0  0  0
  -30.3404   -3.8558   -3.9006 N   0  0  0  0  0  0  0  0  0  0  0  0
  -29.5496   -4.7675   -4.5373 C   0  0  0  0  0  0  0  0  0  0  0  0
  -28.7558   -8.1876   -7.4207 C   0  0  0  0  0  0  0  0  0  0  0  0
  -27.9307   -9.0992   -6.8995 N   0  0  0  0  0  0  0  0  0  0  0  0
  -27.6921   -9.0174   -5.5807 C   0  0  0  0  0  0  0  0  0  0  0  0
  -28.2584   -8.0758   -4.7585 C   0  0  0  0  0  0  0  0  0  0  0  0
  -29.1052   -7.1711   -5.3610 C   0  0  0  0  0  0  0  0  0  0  0  0
  -29.3521   -7.2316   -6.6997 N   0  0  0  0  0  0  0  0  0  0  0  0
  -29.6484   -9.5295   -9.2246 C   0  0  0  0  0  0  0  0  0  0  0  0
  -28.9860   -8.3272   -8.7806 N   0  0  0  0  0  0  0  0  0  0  0  0
  -28.1156   -8.0942   -9.2448 H   0  0  0  0  0  0  0  0  0  0  0  0
 35 36  1  0  0  0
 36 29  1  0  0  0
 36 37  1  0  0  0
 29 30  1  0  0  0
 29 34  2  0  0  0
 30 31  2  0  0  0
 31 32  1  0  0  0
 32 33  2  0  0  0
 33 23  1  0  0  0
 33 34  1  0  0  0
 23 24  1  0  0  0
 23 28  2  0  0  0
 24 25  2  0  0  0
 25 26  1  0  0  0
 26 27  2  0  0  0
 27 28  1  0  0  0
 28 22  1  0  0  0
 22  1  1  0  0  0
  1  2  1  0  0  0
  1 10  2  0  0  0
  2  3  2  0  0  0
  3  4  1  0  0  0
  4 11  1  0  0  0
  4  5  2  0  0  0
 11 13  1  0  0  0
 11 12  1  0  0  0
 13 14  2  0  0  0
 13 21  1  0  0  0
 14 15  1  0  0  0
 15 16  1  0  0  0
 15 20  2  0  0  0
 16 17  2  0  0  0
 17 18  1  0  0  0
 18 19  2  0  0  0
 19 20  1  0  0  0
 20 21  1  0  0  0
  5  6  1  0  0  0
  5 10  1  0  0  0
  6  7  2  0  0  0
  7  8  1  0  0  0
  8  9  2  0  0  0
  9 10  1  0  0  0
M  END
> <minimizedAffinity>
-10.39087

$$$$
