CHEMBL3216699


 38 42  0  0  0  0  0  0  0  0999 V2000
  -30.7879   -2.7303   -2.0481 N   0  0  0  0  0  0  0  0  0  0  0  0
  -29.9850   -3.1383   -3.1989 C   0  0  0  0  0  0  0  0  0  0  0  0
  -29.7904   -1.9579   -4.1607 C   0  0  0  0  0  0  0  0  0  0  0  0
  -28.8004   -2.3292   -5.2819 C   0  0  0  0  0  0  0  0  0  0  0  0
  -29.0995   -3.6963   -5.8512 C   0  0  0  0  0  0  0  0  0  0  0  0
  -29.9703   -4.5870   -5.2442 C   0  0  0  0  0  0  0  0  0  0  0  0
  -30.0236   -5.6983   -6.0597 C   0  0  0  0  0  0  0  0  0  0  0  0
  -30.7594   -6.8922   -5.9466 C   0  0  0  0  0  0  0  0  0  0  0  0
  -30.6002   -7.8789   -6.9477 C   0  0  0  0  0  0  0  0  0  0  0  0
  -29.6933   -7.6322   -8.0057 C   0  0  0  0  0  0  0  0  0  0  0  0
  -28.9675   -6.4521   -8.0844 C   0  0  0  0  0  0  0  0  0  0  0  0
  -29.1430   -5.4654   -7.1034 C   0  0  0  0  0  0  0  0  0  0  0  0
  -28.5626   -4.2277   -6.9821 N   0  0  0  0  0  0  0  0  0  0  0  0
  -30.6642   -4.3241   -3.9371 C   0  0  0  0  0  0  0  0  0  0  0  0
  -30.2796   -1.9774   -1.5281 H   0  0  0  0  0  0  0  0  0  0  0  0
  -30.8939   -3.5419   -1.3978 H   0  0  0  0  0  0  0  0  0  0  0  0
  -31.3072   -9.0475   -6.8935 O   0  0  0  0  0  0  0  0  0  0  0  0
  -31.8980   -9.6139   -8.0164 C   0  0  0  0  0  0  0  0  0  0  0  0
  -31.4154  -11.0369   -8.2894 C   0  0  0  0  0  0  0  0  0  0  0  0
  -29.9781  -11.0054   -8.7756 C   0  0  0  0  0  0  0  0  0  0  0  0
  -28.9371  -11.4567   -7.9456 C   0  0  0  0  0  0  0  0  0  0  0  0
  -27.6071  -11.4024   -8.3818 C   0  0  0  0  0  0  0  0  0  0  0  0
  -27.3019  -10.8981   -9.6508 C   0  0  0  0  0  0  0  0  0  0  0  0
  -26.0241  -10.8363  -10.0810 O   0  0  0  0  0  0  0  0  0  0  0  0
  -28.3299  -10.4550  -10.4867 C   0  0  0  0  0  0  0  0  0  0  0  0
  -29.6597  -10.5088  -10.0556 C   0  0  0  0  0  0  0  0  0  0  0  0
  -25.2802  -11.1266   -9.5320 H   0  0  0  0  0  0  0  0  0  0  0  0
  -27.5647   -3.5169   -7.8211 C   0  0  0  0  0  0  0  0  0  0  0  0
  -28.1829   -2.6633   -8.9207 C   0  0  0  0  0  0  0  0  0  0  0  0
  -27.2366   -1.6511   -9.5608 C   0  0  0  0  0  0  0  0  0  0  0  0
  -27.8134   -1.3007  -10.9405 C   0  0  0  0  0  0  0  0  0  0  0  0
  -27.0305   -1.9191  -12.0922 C   0  0  0  0  0  0  0  0  0  0  0  0
  -25.6107   -1.4244  -12.0385 C   0  0  0  0  0  0  0  0  0  0  0  0
  -25.3227   -0.0539  -12.0916 C   0  0  0  0  0  0  0  0  0  0  0  0
  -23.9915    0.3668  -12.0645 C   0  0  0  0  0  0  0  0  0  0  0  0
  -22.9640   -0.5755  -11.9873 C   0  0  0  0  0  0  0  0  0  0  0  0
  -23.2858   -1.9326  -11.9352 C   0  0  0  0  0  0  0  0  0  0  0  0
  -24.5877   -2.3230  -11.9599 N   0  0  0  0  0  0  0  0  0  0  0  0
  1  2  1  0  0  0
  1 15  1  0  0  0
  1 16  1  0  0  0
  2  3  1  0  0  0
  2 14  1  0  0  0
  3  4  1  0  0  0
  4  5  1  0  0  0
  5  6  2  0  0  0
  5 13  1  0  0  0
  6  7  1  0  0  0
  6 14  1  0  0  0
  7  8  1  0  0  0
  7 12  2  0  0  0
  8  9  2  0  0  0
  9 17  1  0  0  0
  9 10  1  0  0  0
 17 18  1  0  0  0
 18 19  1  0  0  0
 19 20  1  0  0  0
 20 21  1  0  0  0
 20 26  2  0  0  0
 21 22  2  0  0  0
 22 23  1  0  0  0
 23 24  1  0  0  0
 23 25  2  0  0  0
 24 27  1  0  0  0
 25 26  1  0  0  0
 10 11  2  0  0  0
 11 12  1  0  0  0
 12 13  1  0  0  0
 13 28  1  0  0  0
 28 29  1  0  0  0
 29 30  1  0  0  0
 30 31  1  0  0  0
 31 32  1  0  0  0
 32 33  1  0  0  0
 33 34  1  0  0  0
 33 38  2  0  0  0
 34 35  2  0  0  0
 35 36  1  0  0  0
 36 37  2  0  0  0
 37 38  1  0  0  0
M  END
> <minimizedAffinity>
-9.13339

$$$$
