CHEMBL605118


 28 31  0  0  0  0  0  0  0  0999 V2000
  -18.1392    2.6940  -15.2942 C   0  0  0  0  0  0  0  0  0  0  0  0
  -17.7450    1.7438  -14.4405 N   0  0  0  0  0  0  0  0  0  0  0  0
  -16.4486    1.3948  -14.4799 C   0  0  0  0  0  0  0  0  0  0  0  0
  -15.5477    1.9248  -15.3748 C   0  0  0  0  0  0  0  0  0  0  0  0
  -16.0417    2.8668  -16.2511 C   0  0  0  0  0  0  0  0  0  0  0  0
  -17.3256    3.2574  -16.2090 N   0  0  0  0  0  0  0  0  0  0  0  0
  -15.1948    3.4909  -17.2757 C   0  0  0  0  0  0  0  0  0  0  0  0
  -15.2032    4.8697  -17.4804 C   0  0  0  0  0  0  0  0  0  0  0  0
  -14.4114    5.5250  -18.3679 N   0  0  0  0  0  0  0  0  0  0  0  0
  -13.6077    4.7736  -19.1444 C   0  0  0  0  0  0  0  0  0  0  0  0
  -13.5549    3.3968  -19.0759 C   0  0  0  0  0  0  0  0  0  0  0  0
  -14.3125    2.7604  -18.0942 C   0  0  0  0  0  0  0  0  0  0  0  0
  -14.0854    1.3785  -17.9522 N   0  0  0  0  0  0  0  0  0  0  0  0
  -13.9112    0.7245  -16.7589 C   0  0  0  0  0  0  0  0  0  0  0  0
  -13.5026   -0.4441  -16.7698 O   0  0  0  0  0  0  0  0  0  0  0  0
  -14.1328    1.4684  -15.4686 C   0  0  0  0  0  0  0  0  0  0  0  0
  -13.7154    0.8586  -18.7368 H   0  0  0  0  0  0  0  0  0  0  0  0
  -19.4689    3.1310  -15.2134 N   0  0  0  0  0  0  0  0  0  0  0  0
  -19.4685    4.0573  -14.8075 H   0  0  0  0  0  0  0  0  0  0  0  0
  -22.6887    0.7064  -13.9507 C   0  0  0  0  0  0  0  0  0  0  0  0
  -21.5753    0.1388  -14.5706 C   0  0  0  0  0  0  0  0  0  0  0  0
  -20.5063    0.9384  -14.9895 C   0  0  0  0  0  0  0  0  0  0  0  0
  -20.5530    2.3228  -14.8275 C   0  0  0  0  0  0  0  0  0  0  0  0
  -21.6631    2.8787  -14.1719 C   0  0  0  0  0  0  0  0  0  0  0  0
  -22.7310    2.0795  -13.7538 C   0  0  0  0  0  0  0  0  0  0  0  0
  -23.7839    0.0132  -13.5052 O   0  0  0  0  0  0  0  0  0  0  0  0
  -23.2198   -1.5442  -11.7784 C   0  0  0  0  0  0  0  0  0  0  0  0
  -23.8469   -0.2019  -12.0948 C   0  0  0  0  0  0  0  0  0  0  0  0
 27 28  1  0  0  0
 28 26  1  0  0  0
 26 20  1  0  0  0
 20 21  1  0  0  0
 20 25  2  0  0  0
 21 22  2  0  0  0
 22 23  1  0  0  0
 23 18  1  0  0  0
 23 24  2  0  0  0
 18  1  1  0  0  0
 18 19  1  0  0  0
  1  2  1  0  0  0
  1  6  2  0  0  0
  2  3  2  0  0  0
  3  4  1  0  0  0
  4  5  2  0  0  0
  4 16  1  0  0  0
  5  6  1  0  0  0
  5  7  1  0  0  0
  7  8  1  0  0  0
  7 12  2  0  0  0
  8  9  2  0  0  0
  9 10  1  0  0  0
 10 11  2  0  0  0
 11 12  1  0  0  0
 12 13  1  0  0  0
 13 14  1  0  0  0
 13 17  1  0  0  0
 14 15  2  0  0  0
 14 16  1  0  0  0
 24 25  1  0  0  0
M  END
> <minimizedAffinity>
-8.21195

$$$$
