CHEMBL242131


 30 32  0  0  0  0  0  0  0  0999 V2000
  -27.7451   -2.0784   -8.3079 C   0  0  0  0  0  0  0  0  0  0  0  0
  -27.9089   -0.7990   -7.7825 C   0  0  0  0  0  0  0  0  0  0  0  0
  -28.4537   -0.6205   -6.5125 C   0  0  0  0  0  0  0  0  0  0  0  0
  -28.8074   -1.6904   -5.7105 C   0  0  0  0  0  0  0  0  0  0  0  0
  -29.2586   -1.4346   -4.4836 N   0  0  0  0  0  0  0  0  0  0  0  0
  -29.4972   -2.4895   -3.7037 C   0  0  0  0  0  0  0  0  0  0  0  0
  -29.3031   -3.7671   -4.0382 N   0  0  0  0  0  0  0  0  0  0  0  0
  -28.8500   -4.0197   -5.2835 C   0  0  0  0  0  0  0  0  0  0  0  0
  -28.6294   -2.9908   -6.2146 C   0  0  0  0  0  0  0  0  0  0  0  0
  -28.1703   -3.1683   -7.5480 C   0  0  0  0  0  0  0  0  0  0  0  0
  -27.4047   -1.6716  -10.7224 C   0  0  0  0  0  0  0  0  0  0  0  0
  -28.2453   -0.7924  -10.8729 O   0  0  0  0  0  0  0  0  0  0  0  0
  -27.1130   -2.3358   -9.5452 N   0  0  0  0  0  0  0  0  0  0  0  0
  -26.2625   -2.8769   -9.5232 H   0  0  0  0  0  0  0  0  0  0  0  0
  -25.6033   -1.2136  -12.2779 C   0  0  0  0  0  0  0  0  0  0  0  0
  -26.5369   -2.0821  -11.8561 C   0  0  0  0  0  0  0  0  0  0  0  0
  -24.7564   -1.3515  -13.5084 C   0  0  0  0  0  0  0  0  0  0  0  0
  -22.6426   -0.2696  -13.8351 C   0  0  0  0  0  0  0  0  0  0  0  0
  -23.3122   -1.4380  -13.2483 N   0  0  0  0  0  0  0  0  0  0  0  0
  -22.9940   -1.4935  -11.8176 C   0  0  0  0  0  0  0  0  0  0  0  0
  -28.4612   -5.3529   -5.5939 N   0  0  0  0  0  0  0  0  0  0  0  0
  -27.4797   -5.4240   -5.8349 H   0  0  0  0  0  0  0  0  0  0  0  0
  -29.2812   -6.2660   -6.3003 C   0  0  0  0  0  0  0  0  0  0  0  0
  -28.8300   -6.8473   -7.4962 C   0  0  0  0  0  0  0  0  0  0  0  0
  -29.5568   -7.8581   -8.1263 C   0  0  0  0  0  0  0  0  0  0  0  0
  -30.7609   -8.2847   -7.5725 C   0  0  0  0  0  0  0  0  0  0  0  0
  -31.6763   -9.7414   -8.3554 Br  0  0  0  0  0  0  0  0  0  0  0  0
  -31.2708   -7.6714   -6.4316 C   0  0  0  0  0  0  0  0  0  0  0  0
  -30.5313   -6.6630   -5.8111 C   0  0  0  0  0  0  0  0  0  0  0  0
  -31.0164   -6.0953   -4.6950 F   0  0  0  0  0  0  0  0  0  0  0  0
 18 19  1  0  0  0
 19 20  1  0  0  0
 19 17  1  0  0  0
 17 15  1  0  0  0
 15 16  2  0  0  0
 16 11  1  0  0  0
 11 12  2  0  0  0
 11 13  1  0  0  0
 13  1  1  0  0  0
 13 14  1  0  0  0
  1  2  1  0  0  0
  1 10  2  0  0  0
  2  3  2  0  0  0
  3  4  1  0  0  0
  4  5  1  0  0  0
  4  9  2  0  0  0
  5  6  2  0  0  0
  6  7  1  0  0  0
  7  8  2  0  0  0
  8 21  1  0  0  0
  8  9  1  0  0  0
 21 23  1  0  0  0
 21 22  1  0  0  0
 23 24  1  0  0  0
 23 29  2  0  0  0
 24 25  2  0  0  0
 25 26  1  0  0  0
 26 27  1  0  0  0
 26 28  2  0  0  0
 28 29  1  0  0  0
 29 30  1  0  0  0
  9 10  1  0  0  0
M  END
> <minimizedAffinity>
-9.06028

$$$$
