CHEMBL1079428


 24 27  0  0  0  0  0  0  0  0999 V2000
  -13.3137    2.7057  -15.6382 C   0  0  0  0  0  0  0  0  0  0  0  0
  -14.7468    2.8781  -15.6409 N   0  0  0  0  0  0  0  0  0  0  0  0
  -15.3851    3.8944  -16.2982 C   0  0  0  0  0  0  0  0  0  0  0  0
  -16.6865    3.7938  -16.1996 N   0  0  0  0  0  0  0  0  0  0  0  0
  -16.9128    2.6713  -15.4337 C   0  0  0  0  0  0  0  0  0  0  0  0
  -15.7059    2.0581  -15.0808 C   0  0  0  0  0  0  0  0  0  0  0  0
  -15.4543    0.8379  -14.3496 C   0  0  0  0  0  0  0  0  0  0  0  0
  -14.7944   -0.2861  -14.8169 C   0  0  0  0  0  0  0  0  0  0  0  0
  -14.8668   -1.4009  -13.9187 C   0  0  0  0  0  0  0  0  0  0  0  0
  -14.4570   -2.7404  -14.0108 C   0  0  0  0  0  0  0  0  0  0  0  0
  -13.9111   -3.2988  -15.1584 N   0  0  0  0  0  0  0  0  0  0  0  0
  -14.6316   -3.5544  -12.9553 N   0  0  0  0  0  0  0  0  0  0  0  0
  -15.1992   -3.0492  -11.8475 C   0  0  0  0  0  0  0  0  0  0  0  0
  -15.6650   -1.8119  -11.6578 N   0  0  0  0  0  0  0  0  0  0  0  0
  -15.4790   -1.0321  -12.7360 C   0  0  0  0  0  0  0  0  0  0  0  0
  -16.0533    0.5659  -12.7671 S   0  0  0  0  0  0  0  0  0  0  0  0
  -14.2129   -2.8763  -16.0267 H   0  0  0  0  0  0  0  0  0  0  0  0
  -13.9649   -4.3114  -15.1199 H   0  0  0  0  0  0  0  0  0  0  0  0
  -18.2653    2.2086  -15.1365 C   0  0  0  0  0  0  0  0  0  0  0  0
  -19.2299    3.1349  -14.7116 C   0  0  0  0  0  0  0  0  0  0  0  0
  -20.5624    2.7490  -14.5398 C   0  0  0  0  0  0  0  0  0  0  0  0
  -20.9468    1.4339  -14.7956 C   0  0  0  0  0  0  0  0  0  0  0  0
  -19.9899    0.4927  -15.1651 C   0  0  0  0  0  0  0  0  0  0  0  0
  -18.6535    0.8731  -15.2992 C   0  0  0  0  0  0  0  0  0  0  0  0
  1  2  1  0  0  0
  2  3  1  0  0  0
  2  6  1  0  0  0
  3  4  2  0  0  0
  4  5  1  0  0  0
  5 19  1  0  0  0
  5  6  2  0  0  0
 19 20  1  0  0  0
 19 24  2  0  0  0
 20 21  2  0  0  0
 21 22  1  0  0  0
 22 23  2  0  0  0
 23 24  1  0  0  0
  6  7  1  0  0  0
  7  8  2  0  0  0
  7 16  1  0  0  0
  8  9  1  0  0  0
  9 10  1  0  0  0
  9 15  2  0  0  0
 10 11  1  0  0  0
 10 12  2  0  0  0
 11 17  1  0  0  0
 11 18  1  0  0  0
 12 13  1  0  0  0
 13 14  2  0  0  0
 14 15  1  0  0  0
 15 16  1  0  0  0
M  END
> <minimizedAffinity>
-7.51512

$$$$
