CHEMBL3938869


 35 39  0  0  0  0  0  0  0  0999 V2000
  -28.9471   -6.9934   -6.7654 C   0  0  0  0  0  0  0  0  0  0  0  0
  -28.6375   -8.3539   -6.7786 C   0  0  0  0  0  0  0  0  0  0  0  0
  -28.5258   -9.0792   -5.5702 C   0  0  0  0  0  0  0  0  0  0  0  0
  -28.1675  -10.4436   -5.4733 C   0  0  0  0  0  0  0  0  0  0  0  0
  -28.2758  -11.1212   -4.3148 N   0  0  0  0  0  0  0  0  0  0  0  0
  -28.6677  -10.4154   -3.2486 C   0  0  0  0  0  0  0  0  0  0  0  0
  -28.8833   -9.0906   -3.2078 N   0  0  0  0  0  0  0  0  0  0  0  0
  -28.7997   -8.4237   -4.3641 C   0  0  0  0  0  0  0  0  0  0  0  0
  -28.9877   -7.0370   -4.3763 C   0  0  0  0  0  0  0  0  0  0  0  0
  -29.0097   -6.2950   -5.5571 C   0  0  0  0  0  0  0  0  0  0  0  0
  -27.9478   -5.6805   -8.3954 C   0  0  0  0  0  0  0  0  0  0  0  0
  -29.1206   -6.3905   -7.9857 O   0  0  0  0  0  0  0  0  0  0  0  0
  -27.6200  -11.0723   -6.6300 N   0  0  0  0  0  0  0  0  0  0  0  0
  -28.0771  -10.6643   -7.4423 H   0  0  0  0  0  0  0  0  0  0  0  0
  -26.2740  -11.3924   -6.9503 C   0  0  0  0  0  0  0  0  0  0  0  0
  -25.8809  -11.9039   -8.1896 C   0  0  0  0  0  0  0  0  0  0  0  0
  -24.5301  -12.1208   -8.4921 C   0  0  0  0  0  0  0  0  0  0  0  0
  -23.5422  -11.7994   -7.5579 C   0  0  0  0  0  0  0  0  0  0  0  0
  -21.7347  -12.1164   -8.0481 Br  0  0  0  0  0  0  0  0  0  0  0  0
  -23.9076  -11.2579   -6.3258 C   0  0  0  0  0  0  0  0  0  0  0  0
  -22.7545  -10.8171   -5.1173 Cl  0  0  0  0  0  0  0  0  0  0  0  0
  -25.2648  -11.0460   -6.0331 C   0  0  0  0  0  0  0  0  0  0  0  0
  -29.2611   -4.9592   -5.6266 O   0  0  0  0  0  0  0  0  0  0  0  0
  -28.8953   -4.0137   -4.6253 C   0  0  0  0  0  0  0  0  0  0  0  0
  -29.9285   -3.4232   -3.6786 C   0  0  0  0  0  0  0  0  0  0  0  0
  -29.7716   -1.9946   -3.6550 O   0  0  0  0  0  0  0  0  0  0  0  0
  -28.6174   -1.6127   -4.4164 C   0  0  0  0  0  0  0  0  0  0  0  0
  -28.0425   -2.8476   -5.0893 C   0  0  0  0  0  0  0  0  0  0  0  0
  -28.0618   -2.6379   -6.5004 O   0  0  0  0  0  0  0  0  0  0  0  0
  -28.2522   -1.2404   -6.7346 C   0  0  0  0  0  0  0  0  0  0  0  0
  -29.0402   -0.7108   -5.5560 C   0  0  0  0  0  0  0  0  0  0  0  0
  -28.8105    0.7663   -5.3361 C   0  0  0  0  0  0  0  0  0  0  0  0
  -28.3656    1.3966   -6.4418 F   0  0  0  0  0  0  0  0  0  0  0  0
  -29.9354    1.4048   -4.9432 F   0  0  0  0  0  0  0  0  0  0  0  0
  -27.8926    0.9632   -4.3612 F   0  0  0  0  0  0  0  0  0  0  0  0
 11 12  1  0  0  0
 12  1  1  0  0  0
  1  2  1  0  0  0
  1 10  2  0  0  0
  2  3  2  0  0  0
  3  4  1  0  0  0
  3  8  1  0  0  0
  4 13  1  0  0  0
  4  5  2  0  0  0
 13 15  1  0  0  0
 13 14  1  0  0  0
 15 16  1  0  0  0
 15 22  2  0  0  0
 16 17  2  0  0  0
 17 18  1  0  0  0
 18 19  1  0  0  0
 18 20  2  0  0  0
 20 21  1  0  0  0
 20 22  1  0  0  0
  5  6  1  0  0  0
  6  7  2  0  0  0
  7  8  1  0  0  0
  8  9  2  0  0  0
  9 10  1  0  0  0
 10 23  1  0  0  0
 23 24  1  0  0  0
 24 25  1  0  0  0
 24 28  1  0  0  0
 25 26  1  0  0  0
 26 27  1  0  0  0
 27 28  1  0  0  0
 27 31  1  0  0  0
 28 29  1  0  0  0
 29 30  1  0  0  0
 30 31  1  0  0  0
 31 32  1  0  0  0
 32 33  1  0  0  0
 32 34  1  0  0  0
 32 35  1  0  0  0
M  END
> <minimizedAffinity>
-8.64473

$$$$
