CHEMBL3690497


 34 37  0  0  0  0  0  0  0  0999 V2000
  -25.0343  -10.1574   -4.4744 C   0  0  0  0  0  0  0  0  0  0  0  0
  -25.3229   -8.8392   -3.9116 C   0  0  0  0  0  0  0  0  0  0  0  0
  -26.4586   -8.2054   -4.2423 C   0  0  0  0  0  0  0  0  0  0  0  0
  -27.3605   -8.8083   -5.1232 N   0  0  0  0  0  0  0  0  0  0  0  0
  -28.6083   -8.4015   -5.5873 C   0  0  0  0  0  0  0  0  0  0  0  0
  -28.9811   -9.4200   -6.4575 C   0  0  0  0  0  0  0  0  0  0  0  0
  -28.0445  -10.4069   -6.5468 N   0  0  0  0  0  0  0  0  0  0  0  0
  -27.0856  -10.0366   -5.7328 C   0  0  0  0  0  0  0  0  0  0  0  0
  -25.8776  -10.7013   -5.3812 C   0  0  0  0  0  0  0  0  0  0  0  0
  -22.7010  -11.0334   -4.7940 C   0  0  0  0  0  0  0  0  0  0  0  0
  -21.7084  -11.8070   -4.2277 C   0  0  0  0  0  0  0  0  0  0  0  0
  -21.8286  -12.4654   -3.0555 N   0  0  0  0  0  0  0  0  0  0  0  0
  -23.0016  -12.3180   -2.4264 C   0  0  0  0  0  0  0  0  0  0  0  0
  -24.0367  -11.5899   -2.8589 N   0  0  0  0  0  0  0  0  0  0  0  0
  -23.8677  -10.9530   -4.0462 C   0  0  0  0  0  0  0  0  0  0  0  0
  -21.5297  -10.7328   -6.8146 C   0  0  0  0  0  0  0  0  0  0  0  0
  -22.6019  -10.3384   -5.9631 O   0  0  0  0  0  0  0  0  0  0  0  0
  -29.3646   -7.1873   -5.2463 C   0  0  0  0  0  0  0  0  0  0  0  0
  -30.1822   -7.2165   -4.1045 C   0  0  0  0  0  0  0  0  0  0  0  0
  -30.8605   -6.0825   -3.6826 C   0  0  0  0  0  0  0  0  0  0  0  0
  -30.7190   -4.8913   -4.3834 C   0  0  0  0  0  0  0  0  0  0  0  0
  -29.8855   -4.8023   -5.5024 C   0  0  0  0  0  0  0  0  0  0  0  0
  -29.2354   -5.9696   -5.9419 C   0  0  0  0  0  0  0  0  0  0  0  0
  -29.6291   -3.5797   -6.1788 N   0  0  0  0  0  0  0  0  0  0  0  0
  -28.7766   -2.5946   -5.7228 C   0  0  0  0  0  0  0  0  0  0  0  0
  -28.1406   -2.6013   -4.6867 O   0  0  0  0  0  0  0  0  0  0  0  0
  -28.7239   -1.4878   -6.5450 N   0  0  0  0  0  0  0  0  0  0  0  0
  -30.0289   -3.4676   -7.0931 H   0  0  0  0  0  0  0  0  0  0  0  0
  -28.9411   -1.5921   -7.5225 H   0  0  0  0  0  0  0  0  0  0  0  0
  -27.8369   -0.3852   -6.1345 C   0  0  0  0  0  0  0  0  0  0  0  0
  -28.5107    0.8762   -5.5698 C   0  0  0  0  0  0  0  0  0  0  0  0
  -27.8308    1.4049   -4.5272 F   0  0  0  0  0  0  0  0  0  0  0  0
  -28.5627    1.8343   -6.5301 F   0  0  0  0  0  0  0  0  0  0  0  0
  -29.7793    0.6454   -5.1716 F   0  0  0  0  0  0  0  0  0  0  0  0
 16 17  1  0  0  0
 17 10  1  0  0  0
 10 11  1  0  0  0
 10 15  2  0  0  0
 11 12  2  0  0  0
 12 13  1  0  0  0
 13 14  2  0  0  0
 14 15  1  0  0  0
 15  1  1  0  0  0
  1  2  1  0  0  0
  1  9  2  0  0  0
  2  3  2  0  0  0
  3  4  1  0  0  0
  4  5  1  0  0  0
  4  8  1  0  0  0
  5 18  1  0  0  0
  5  6  2  0  0  0
 18 19  1  0  0  0
 18 23  2  0  0  0
 19 20  2  0  0  0
 20 21  1  0  0  0
 21 22  2  0  0  0
 22 24  1  0  0  0
 22 23  1  0  0  0
 24 25  1  0  0  0
 24 28  1  0  0  0
 25 26  2  0  0  0
 25 27  1  0  0  0
 27 30  1  0  0  0
 27 29  1  0  0  0
 30 31  1  0  0  0
 31 32  1  0  0  0
 31 33  1  0  0  0
 31 34  1  0  0  0
  6  7  1  0  0  0
  7  8  2  0  0  0
  8  9  1  0  0  0
M  END
> <minimizedAffinity>
-8.72699

$$$$
