CHEMBL3397933


 31 33  0  0  0  0  0  0  0  0999 V2000
  -15.7395   -1.2081  -13.9201 N   0  0  0  0  0  0  0  0  0  0  0  0
  -15.5996    0.1283  -13.5765 C   0  0  0  0  0  0  0  0  0  0  0  0
  -14.8446    0.5551  -12.7028 O   0  0  0  0  0  0  0  0  0  0  0  0
  -16.1852   -1.4236  -14.8003 H   0  0  0  0  0  0  0  0  0  0  0  0
  -13.9861   -4.4903  -11.8945 C   0  0  0  0  0  0  0  0  0  0  0  0
  -13.1871   -3.6408  -12.6543 C   0  0  0  0  0  0  0  0  0  0  0  0
  -13.7474   -2.5425  -13.3113 C   0  0  0  0  0  0  0  0  0  0  0  0
  -15.1191   -2.2742  -13.2336 C   0  0  0  0  0  0  0  0  0  0  0  0
  -15.9141   -3.0955  -12.4381 C   0  0  0  0  0  0  0  0  0  0  0  0
  -15.3507   -4.1939  -11.7867 C   0  0  0  0  0  0  0  0  0  0  0  0
  -16.1828   -4.9546  -11.0601 F   0  0  0  0  0  0  0  0  0  0  0  0
  -13.3116   -5.5430  -11.3311 O   0  0  0  0  0  0  0  0  0  0  0  0
  -13.0216   -6.6222  -12.2192 C   0  0  0  0  0  0  0  0  0  0  0  0
  -14.0090   -7.7764  -11.9982 C   0  0  0  0  0  0  0  0  0  0  0  0
  -15.4849   -7.2394  -13.8290 C   0  0  0  0  0  0  0  0  0  0  0  0
  -14.6157   -8.2660  -13.2539 N   0  0  0  0  0  0  0  0  0  0  0  0
  -13.6081   -8.6722  -14.2364 C   0  0  0  0  0  0  0  0  0  0  0  0
  -16.3808    1.1253  -14.3459 C   0  0  0  0  0  0  0  0  0  0  0  0
  -15.8507    1.9099  -15.3696 C   0  0  0  0  0  0  0  0  0  0  0  0
  -16.7005    2.7413  -16.1019 C   0  0  0  0  0  0  0  0  0  0  0  0
  -18.0718    2.7833  -15.8160 C   0  0  0  0  0  0  0  0  0  0  0  0
  -18.6371    2.0001  -14.7955 C   0  0  0  0  0  0  0  0  0  0  0  0
  -17.7594    1.1868  -14.0656 C   0  0  0  0  0  0  0  0  0  0  0  0
  -20.0912    1.9896  -14.5129 C   0  0  0  0  0  0  0  0  0  0  0  0
  -20.8186    3.1838  -14.3299 C   0  0  0  0  0  0  0  0  0  0  0  0
  -22.1890    3.1729  -14.0469 C   0  0  0  0  0  0  0  0  0  0  0  0
  -22.8731    1.9647  -13.9625 C   0  0  0  0  0  0  0  0  0  0  0  0
  -22.1726    0.7796  -14.1437 C   0  0  0  0  0  0  0  0  0  0  0  0
  -22.7999   -0.4303  -14.0920 O   0  0  0  0  0  0  0  0  0  0  0  0
  -20.8021    0.7840  -14.3936 C   0  0  0  0  0  0  0  0  0  0  0  0
  -23.7581   -0.2764  -14.0642 H   0  0  0  0  0  0  0  0  0  0  0  0
 15 16  1  0  0  0
 16 17  1  0  0  0
 16 14  1  0  0  0
 14 13  1  0  0  0
 13 12  1  0  0  0
 12  5  1  0  0  0
  5  6  1  0  0  0
  5 10  2  0  0  0
  6  7  2  0  0  0
  7  8  1  0  0  0
  8  1  1  0  0  0
  8  9  2  0  0  0
  1  2  1  0  0  0
  1  4  1  0  0  0
  2  3  2  0  0  0
  2 18  1  0  0  0
 18 19  1  0  0  0
 18 23  2  0  0  0
 19 20  2  0  0  0
 20 21  1  0  0  0
 21 22  2  0  0  0
 22 24  1  0  0  0
 22 23  1  0  0  0
 24 25  1  0  0  0
 24 30  2  0  0  0
 25 26  2  0  0  0
 26 27  1  0  0  0
 27 28  2  0  0  0
 28 29  1  0  0  0
 28 30  1  0  0  0
 29 31  1  0  0  0
  9 10  1  0  0  0
 10 11  1  0  0  0
M  END
> <minimizedAffinity>
-9.40841

$$$$
