CHEMBL1614712


 35 40  0  0  0  0  0  0  0  0999 V2000
  -29.0319   -5.3925   -7.9365 N   0  0  0  0  0  0  0  0  0  0  0  0
  -28.7199   -6.7168   -7.7074 C   0  0  0  0  0  0  0  0  0  0  0  0
  -28.2611   -7.3923   -8.7824 N   0  0  0  0  0  0  0  0  0  0  0  0
  -27.9021   -8.6740   -8.6208 C   0  0  0  0  0  0  0  0  0  0  0  0
  -27.9407   -9.4260   -7.5112 N   0  0  0  0  0  0  0  0  0  0  0  0
  -28.4427   -8.7391   -6.4624 C   0  0  0  0  0  0  0  0  0  0  0  0
  -28.8589   -7.4070   -6.4816 C   0  0  0  0  0  0  0  0  0  0  0  0
  -29.3406   -7.1079   -5.1622 C   0  0  0  0  0  0  0  0  0  0  0  0
  -29.1280   -8.2293   -4.3916 C   0  0  0  0  0  0  0  0  0  0  0  0
  -28.6621   -9.2240   -5.1878 N   0  0  0  0  0  0  0  0  0  0  0  0
  -28.9513   -5.0688   -8.8917 H   0  0  0  0  0  0  0  0  0  0  0  0
  -29.1890   -4.7352   -7.1933 H   0  0  0  0  0  0  0  0  0  0  0  0
  -29.9488   -5.9187   -4.6056 C   0  0  0  0  0  0  0  0  0  0  0  0
  -31.2799   -5.8748   -4.1658 C   0  0  0  0  0  0  0  0  0  0  0  0
  -31.7660   -4.7337   -3.5336 C   0  0  0  0  0  0  0  0  0  0  0  0
  -30.9276   -3.6449   -3.3052 C   0  0  0  0  0  0  0  0  0  0  0  0
  -29.6279   -3.6570   -3.8064 C   0  0  0  0  0  0  0  0  0  0  0  0
  -29.1796   -4.7680   -4.4999 C   0  0  0  0  0  0  0  0  0  0  0  0
  -28.8467   -2.5650   -3.5544 O   0  0  0  0  0  0  0  0  0  0  0  0
  -27.9885   -2.1822   -4.6363 C   0  0  0  0  0  0  0  0  0  0  0  0
  -28.5514   -0.9599   -5.2925 C   0  0  0  0  0  0  0  0  0  0  0  0
  -29.8161   -0.4692   -4.9476 C   0  0  0  0  0  0  0  0  0  0  0  0
  -30.2913    0.6986   -5.5397 C   0  0  0  0  0  0  0  0  0  0  0  0
  -29.5105    1.3764   -6.4783 C   0  0  0  0  0  0  0  0  0  0  0  0
  -28.2462    0.8918   -6.8188 C   0  0  0  0  0  0  0  0  0  0  0  0
  -27.7676   -0.2677   -6.2268 C   0  0  0  0  0  0  0  0  0  0  0  0
  -28.2585  -10.5126   -4.6587 C   0  0  0  0  0  0  0  0  0  0  0  0
  -27.0285  -11.1513   -5.3598 C   0  0  0  0  0  0  0  0  0  0  0  0
  -26.1376  -10.6372   -4.1891 C   0  0  0  0  0  0  0  0  0  0  0  0
  -27.4469  -10.5367   -3.3487 C   0  0  0  0  0  0  0  0  0  0  0  0
  -25.3612   -9.3301   -4.4373 C   0  0  0  0  0  0  0  0  0  0  0  0
  -23.9132   -9.5710   -4.5519 N   0  0  0  0  0  0  0  0  0  0  0  0
  -23.5617   -9.9108   -5.9608 C   0  0  0  0  0  0  0  0  0  0  0  0
  -22.6199  -10.9909   -5.4044 C   0  0  0  0  0  0  0  0  0  0  0  0
  -23.5415  -10.9609   -4.1703 C   0  0  0  0  0  0  0  0  0  0  0  0
  1  2  1  0  0  0
  1 11  1  0  0  0
  1 12  1  0  0  0
  2  3  1  0  0  0
  2  7  2  0  0  0
  3  4  2  0  0  0
  4  5  1  0  0  0
  5  6  2  0  0  0
  6  7  1  0  0  0
  6 10  1  0  0  0
  7  8  1  0  0  0
  8 13  1  0  0  0
  8  9  2  0  0  0
 13 14  1  0  0  0
 13 18  2  0  0  0
 14 15  2  0  0  0
 15 16  1  0  0  0
 16 17  2  0  0  0
 17 19  1  0  0  0
 17 18  1  0  0  0
 19 20  1  0  0  0
 20 21  1  0  0  0
 21 22  1  0  0  0
 21 26  2  0  0  0
 22 23  2  0  0  0
 23 24  1  0  0  0
 24 25  2  0  0  0
 25 26  1  0  0  0
  9 10  1  0  0  0
 27 28  1  0  0  0
 27 30  1  0  0  0
 27 10  1  0  0  0
 28 29  1  0  0  0
 29 31  1  0  0  0
 29 30  1  0  0  0
 31 32  1  0  0  0
 32 33  1  0  0  0
 32 35  1  0  0  0
 33 34  1  0  0  0
 34 35  1  0  0  0
M  END
> <minimizedAffinity>
-9.10372

$$$$
