CHEMBL1967094


 27 30  0  0  0  0  0  0  0  0999 V2000
  -18.7150    1.6564  -14.9040 C   0  0  0  0  0  0  0  0  0  0  0  0
  -19.7266    0.7694  -14.5002 C   0  0  0  0  0  0  0  0  0  0  0  0
  -20.9114    1.4838  -14.3141 C   0  0  0  0  0  0  0  0  0  0  0  0
  -22.2286    1.2409  -13.9026 C   0  0  0  0  0  0  0  0  0  0  0  0
  -22.9223    2.4093  -13.9783 N   0  0  0  0  0  0  0  0  0  0  0  0
  -22.0189    3.3326  -14.3866 N   0  0  0  0  0  0  0  0  0  0  0  0
  -20.8091    2.7819  -14.5930 C   0  0  0  0  0  0  0  0  0  0  0  0
  -19.3133    3.2963  -15.0619 S   0  0  0  0  0  0  0  0  0  0  0  0
  -22.3127    4.2941  -14.4951 H   0  0  0  0  0  0  0  0  0  0  0  0
  -22.8869    0.0326  -13.4085 C   0  0  0  0  0  0  0  0  0  0  0  0
  -22.5902   -0.5005  -12.1483 C   0  0  0  0  0  0  0  0  0  0  0  0
  -23.2969   -1.6061  -11.6640 C   0  0  0  0  0  0  0  0  0  0  0  0
  -24.3036   -2.1872  -12.4340 C   0  0  0  0  0  0  0  0  0  0  0  0
  -24.6025   -1.6719  -13.6919 C   0  0  0  0  0  0  0  0  0  0  0  0
  -23.8973   -0.5701  -14.1753 C   0  0  0  0  0  0  0  0  0  0  0  0
  -16.7339    1.7393  -16.1806 O   0  0  0  0  0  0  0  0  0  0  0  0
  -17.3191    1.3412  -15.1761 C   0  0  0  0  0  0  0  0  0  0  0  0
  -16.6940    0.5556  -14.2322 N   0  0  0  0  0  0  0  0  0  0  0  0
  -17.2243    0.2732  -13.4179 H   0  0  0  0  0  0  0  0  0  0  0  0
  -15.3220    0.1308  -14.3521 C   0  0  0  0  0  0  0  0  0  0  0  0
  -15.0662   -1.1167  -13.5442 C   0  0  0  0  0  0  0  0  0  0  0  0
  -14.1415   -2.0704  -13.9972 C   0  0  0  0  0  0  0  0  0  0  0  0
  -13.9191   -3.2454  -13.2747 C   0  0  0  0  0  0  0  0  0  0  0  0
  -14.6247   -3.4768  -12.0968 C   0  0  0  0  0  0  0  0  0  0  0  0
  -14.3725   -4.9365  -11.2209 Cl  0  0  0  0  0  0  0  0  0  0  0  0
  -15.5426   -2.5383  -11.6297 C   0  0  0  0  0  0  0  0  0  0  0  0
  -15.7657   -1.3624  -12.3526 C   0  0  0  0  0  0  0  0  0  0  0  0
 16 17  2  0  0  0
 17 18  1  0  0  0
 17  1  1  0  0  0
 18 20  1  0  0  0
 18 19  1  0  0  0
 20 21  1  0  0  0
 21 22  1  0  0  0
 21 27  2  0  0  0
 22 23  2  0  0  0
 23 24  1  0  0  0
 24 25  1  0  0  0
 24 26  2  0  0  0
 26 27  1  0  0  0
  1  2  2  0  0  0
  1  8  1  0  0  0
  2  3  1  0  0  0
  3  4  1  0  0  0
  3  7  2  0  0  0
  4 10  1  0  0  0
  4  5  2  0  0  0
 10 11  1  0  0  0
 10 15  2  0  0  0
 11 12  2  0  0  0
 12 13  1  0  0  0
 13 14  2  0  0  0
 14 15  1  0  0  0
  5  6  1  0  0  0
  6  7  1  0  0  0
  6  9  1  0  0  0
  7  8  1  0  0  0
M  END
> <minimizedAffinity>
-9.69462

$$$$
