CHEMBL1173541


 40 43  0  0  0  0  0  0  0  0999 V2000
  -20.7422    1.4677  -15.2646 C   0  0  0  0  0  0  0  0  0  0  0  0
  -20.4926    2.8440  -15.3853 C   0  0  0  0  0  0  0  0  0  0  0  0
  -19.1847    3.3395  -15.4660 C   0  0  0  0  0  0  0  0  0  0  0  0
  -18.1298    2.4403  -15.4229 C   0  0  0  0  0  0  0  0  0  0  0  0
  -18.3665    1.0745  -15.2589 C   0  0  0  0  0  0  0  0  0  0  0  0
  -19.6589    0.5621  -15.1802 C   0  0  0  0  0  0  0  0  0  0  0  0
  -17.1472    0.3919  -15.1979 N   0  0  0  0  0  0  0  0  0  0  0  0
  -16.0531    1.2684  -15.3280 C   0  0  0  0  0  0  0  0  0  0  0  0
  -14.8775    0.9897  -15.2909 O   0  0  0  0  0  0  0  0  0  0  0  0
  -16.6689    2.6307  -15.5278 C   0  0  0  0  0  0  0  0  0  0  0  0
  -16.1667    3.8466  -15.8165 C   0  0  0  0  0  0  0  0  0  0  0  0
  -17.0444   -0.6012  -15.0504 H   0  0  0  0  0  0  0  0  0  0  0  0
  -14.8402    4.3125  -16.0339 C   0  0  0  0  0  0  0  0  0  0  0  0
  -13.8478    4.1642  -15.1022 N   0  0  0  0  0  0  0  0  0  0  0  0
  -12.6622    4.6796  -15.5826 C   0  0  0  0  0  0  0  0  0  0  0  0
  -11.4418    4.6150  -14.7358 C   0  0  0  0  0  0  0  0  0  0  0  0
  -12.8866    5.2000  -16.8530 C   0  0  0  0  0  0  0  0  0  0  0  0
  -14.2795    4.9637  -17.1342 C   0  0  0  0  0  0  0  0  0  0  0  0
  -15.0074    5.3496  -18.3843 C   0  0  0  0  0  0  0  0  0  0  0  0
  -13.9695    3.7342  -14.1894 H   0  0  0  0  0  0  0  0  0  0  0  0
  -11.9014    5.9103  -17.7659 C   0  0  0  0  0  0  0  0  0  0  0  0
  -11.4568    7.2745  -17.2495 C   0  0  0  0  0  0  0  0  0  0  0  0
  -12.5929    8.2550  -17.1032 C   0  0  0  0  0  0  0  0  0  0  0  0
  -13.3239    8.6595  -17.9924 O   0  0  0  0  0  0  0  0  0  0  0  0
  -12.7334    8.6662  -15.8121 O   0  0  0  0  0  0  0  0  0  0  0  0
  -12.0805    8.2634  -15.2096 H   0  0  0  0  0  0  0  0  0  0  0  0
  -23.8894    0.0228  -14.1011 N   0  0  0  0  0  0  0  0  0  0  0  0
  -22.5464    0.3564  -14.0795 C   0  0  0  0  0  0  0  0  0  0  0  0
  -21.7659    0.1152  -13.1534 O   0  0  0  0  0  0  0  0  0  0  0  0
  -22.0996    1.0238  -15.2112 N   0  0  0  0  0  0  0  0  0  0  0  0
  -24.4316    0.2561  -14.9219 H   0  0  0  0  0  0  0  0  0  0  0  0
  -22.7839    1.6487  -15.6133 H   0  0  0  0  0  0  0  0  0  0  0  0
  -26.0379   -1.8137  -10.9002 C   0  0  0  0  0  0  0  0  0  0  0  0
  -24.8753   -1.0974  -10.6585 C   0  0  0  0  0  0  0  0  0  0  0  0
  -24.1636   -0.5286  -11.7109 C   0  0  0  0  0  0  0  0  0  0  0  0
  -24.5828   -0.6278  -13.0386 C   0  0  0  0  0  0  0  0  0  0  0  0
  -25.7321   -1.3913  -13.2906 C   0  0  0  0  0  0  0  0  0  0  0  0
  -26.4540   -1.9767  -12.2247 C   0  0  0  0  0  0  0  0  0  0  0  0
  -27.7825   -1.5217   -9.3259 C   0  0  0  0  0  0  0  0  0  0  0  0
  -26.8072   -2.3828   -9.9203 O   0  0  0  0  0  0  0  0  0  0  0  0
 39 40  1  0  0  0
 40 33  1  0  0  0
 33 34  1  0  0  0
 33 38  2  0  0  0
 34 35  2  0  0  0
 35 36  1  0  0  0
 36 27  1  0  0  0
 36 37  2  0  0  0
 27 28  1  0  0  0
 27 31  1  0  0  0
 28 29  2  0  0  0
 28 30  1  0  0  0
 30  1  1  0  0  0
 30 32  1  0  0  0
  1  2  1  0  0  0
  1  6  2  0  0  0
  2  3  2  0  0  0
  3  4  1  0  0  0
  4  5  2  0  0  0
  4 10  1  0  0  0
  5  6  1  0  0  0
  5  7  1  0  0  0
  7  8  1  0  0  0
  7 12  1  0  0  0
  8  9  2  0  0  0
  8 10  1  0  0  0
 10 11  2  0  0  0
 11 13  1  0  0  0
 13 14  1  0  0  0
 13 18  2  0  0  0
 14 15  1  0  0  0
 14 20  1  0  0  0
 15 16  1  0  0  0
 15 17  2  0  0  0
 17 21  1  0  0  0
 17 18  1  0  0  0
 21 22  1  0  0  0
 22 23  1  0  0  0
 23 24  2  0  0  0
 23 25  1  0  0  0
 25 26  1  0  0  0
 18 19  1  0  0  0
 37 38  1  0  0  0
M  END
> <minimizedAffinity>
-8.85485

$$$$
