CHEMBL1095463


 33 36  0  0  0  0  0  0  0  0999 V2000
  -14.7882    2.8797  -15.8393 C   0  0  0  0  0  0  0  0  0  0  0  0
  -14.4373    4.1820  -15.8258 N   0  0  0  0  0  0  0  0  0  0  0  0
  -13.2652    4.5610  -15.2904 C   0  0  0  0  0  0  0  0  0  0  0  0
  -12.9717    5.9079  -15.4044 N   0  0  0  0  0  0  0  0  0  0  0  0
  -12.3891    3.7687  -14.6726 N   0  0  0  0  0  0  0  0  0  0  0  0
  -12.7846    2.4897  -14.6430 C   0  0  0  0  0  0  0  0  0  0  0  0
  -12.0986    1.4497  -14.0606 N   0  0  0  0  0  0  0  0  0  0  0  0
  -12.8686    0.2978  -14.1071 C   0  0  0  0  0  0  0  0  0  0  0  0
  -13.9450    0.5779  -14.9315 C   0  0  0  0  0  0  0  0  0  0  0  0
  -13.9471    1.9711  -15.1930 C   0  0  0  0  0  0  0  0  0  0  0  0
  -13.8366    6.4244  -15.5246 H   0  0  0  0  0  0  0  0  0  0  0  0
  -12.3435    6.1873  -14.6599 H   0  0  0  0  0  0  0  0  0  0  0  0
  -11.1931    1.5589  -13.6315 H   0  0  0  0  0  0  0  0  0  0  0  0
  -15.9640    2.4851  -16.5060 N   0  0  0  0  0  0  0  0  0  0  0  0
  -16.0810    2.9846  -17.3826 H   0  0  0  0  0  0  0  0  0  0  0  0
  -19.6990    1.9839  -14.5854 C   0  0  0  0  0  0  0  0  0  0  0  0
  -18.8474    0.8907  -14.7631 C   0  0  0  0  0  0  0  0  0  0  0  0
  -17.6071    1.0631  -15.3750 C   0  0  0  0  0  0  0  0  0  0  0  0
  -17.1983    2.3171  -15.8440 C   0  0  0  0  0  0  0  0  0  0  0  0
  -18.0142    3.4218  -15.6038 C   0  0  0  0  0  0  0  0  0  0  0  0
  -19.2580    3.2542  -14.9898 C   0  0  0  0  0  0  0  0  0  0  0  0
  -21.9779    2.9711  -14.3029 C   0  0  0  0  0  0  0  0  0  0  0  0
  -21.0751    1.7814  -13.9827 C   0  0  0  0  0  0  0  0  0  0  0  0
  -21.7133    0.4699  -14.4538 C   0  0  0  0  0  0  0  0  0  0  0  0
  -12.4971   -0.9819  -13.4333 C   0  0  0  0  0  0  0  0  0  0  0  0
  -13.5797   -2.0496  -13.4461 C   0  0  0  0  0  0  0  0  0  0  0  0
  -14.6437   -1.9679  -12.5184 C   0  0  0  0  0  0  0  0  0  0  0  0
  -15.6974   -2.8882  -12.5442 C   0  0  0  0  0  0  0  0  0  0  0  0
  -15.7122   -3.8978  -13.4950 C   0  0  0  0  0  0  0  0  0  0  0  0
  -17.0227   -5.0148  -13.5452 Cl  0  0  0  0  0  0  0  0  0  0  0  0
  -14.6804   -4.0014  -14.4235 C   0  0  0  0  0  0  0  0  0  0  0  0
  -13.6147   -3.0922  -14.3873 C   0  0  0  0  0  0  0  0  0  0  0  0
  -12.3737   -3.2824  -15.5766 Cl  0  0  0  0  0  0  0  0  0  0  0  0
 22 23  1  0  0  0
 23 24  1  0  0  0
 23 16  1  0  0  0
 16 17  1  0  0  0
 16 21  2  0  0  0
 17 18  2  0  0  0
 18 19  1  0  0  0
 19 14  1  0  0  0
 19 20  2  0  0  0
 14  1  1  0  0  0
 14 15  1  0  0  0
  1  2  1  0  0  0
  1 10  2  0  0  0
  2  3  2  0  0  0
  3  4  1  0  0  0
  3  5  1  0  0  0
  4 11  1  0  0  0
  4 12  1  0  0  0
  5  6  2  0  0  0
  6  7  1  0  0  0
  6 10  1  0  0  0
  7  8  1  0  0  0
  7 13  1  0  0  0
  8 25  1  0  0  0
  8  9  2  0  0  0
 25 26  1  0  0  0
 26 27  1  0  0  0
 26 32  2  0  0  0
 27 28  2  0  0  0
 28 29  1  0  0  0
 29 30  1  0  0  0
 29 31  2  0  0  0
 31 32  1  0  0  0
 32 33  1  0  0  0
  9 10  1  0  0  0
 20 21  1  0  0  0
M  END
> <minimizedAffinity>
-8.50250

$$$$
