CHEMBL3975944


 38 41  0  0  0  0  0  0  0  0999 V2000
  -19.9052    1.3489  -15.2358 C   0  0  0  0  0  0  0  0  0  0  0  0
  -19.8926    2.7378  -15.3583 C   0  0  0  0  0  0  0  0  0  0  0  0
  -18.6750    3.4199  -15.3785 C   0  0  0  0  0  0  0  0  0  0  0  0
  -17.4887    2.6997  -15.3165 C   0  0  0  0  0  0  0  0  0  0  0  0
  -17.6013    1.3249  -15.1136 C   0  0  0  0  0  0  0  0  0  0  0  0
  -18.7791    0.6350  -15.0413 N   0  0  0  0  0  0  0  0  0  0  0  0
  -22.9769   -0.4294  -14.4653 N   0  0  0  0  0  0  0  0  0  0  0  0
  -21.8070    0.2783  -14.2250 C   0  0  0  0  0  0  0  0  0  0  0  0
  -21.4067    0.5958  -13.1093 O   0  0  0  0  0  0  0  0  0  0  0  0
  -21.1103    0.6193  -15.3740 N   0  0  0  0  0  0  0  0  0  0  0  0
  -23.1073   -0.7966  -15.4001 H   0  0  0  0  0  0  0  0  0  0  0  0
  -21.6709    0.9519  -16.1449 H   0  0  0  0  0  0  0  0  0  0  0  0
  -25.8505   -1.5158  -11.4982 C   0  0  0  0  0  0  0  0  0  0  0  0
  -24.5506   -1.1661  -11.1364 C   0  0  0  0  0  0  0  0  0  0  0  0
  -23.6130   -0.8123  -12.1004 C   0  0  0  0  0  0  0  0  0  0  0  0
  -23.9194   -0.8021  -13.4653 C   0  0  0  0  0  0  0  0  0  0  0  0
  -25.2277   -1.1678  -13.8340 C   0  0  0  0  0  0  0  0  0  0  0  0
  -26.2030   -1.5277  -12.8593 C   0  0  0  0  0  0  0  0  0  0  0  0
  -27.5931   -1.9012  -13.3280 C   0  0  0  0  0  0  0  0  0  0  0  0
  -28.6133   -1.3324  -12.6350 F   0  0  0  0  0  0  0  0  0  0  0  0
  -27.7987   -1.5583  -14.6293 F   0  0  0  0  0  0  0  0  0  0  0  0
  -27.8080   -3.2436  -13.2584 F   0  0  0  0  0  0  0  0  0  0  0  0
  -27.4709   -2.0623   -9.5461 N   0  0  0  0  0  0  0  0  0  0  0  0
  -26.7576   -1.8398  -10.4332 C   0  0  0  0  0  0  0  0  0  0  0  0
  -16.2271    3.2534  -15.3731 O   0  0  0  0  0  0  0  0  0  0  0  0
  -15.5351    3.2815  -16.5720 C   0  0  0  0  0  0  0  0  0  0  0  0
  -14.6841    2.2605  -16.9849 C   0  0  0  0  0  0  0  0  0  0  0  0
  -14.0662    2.3976  -18.2076 C   0  0  0  0  0  0  0  0  0  0  0  0
  -14.2066    3.4807  -18.9938 N   0  0  0  0  0  0  0  0  0  0  0  0
  -14.9754    4.5030  -18.5771 C   0  0  0  0  0  0  0  0  0  0  0  0
  -15.6554    4.4365  -17.3604 C   0  0  0  0  0  0  0  0  0  0  0  0
  -15.0956    5.6483  -19.3894 N   0  0  0  0  0  0  0  0  0  0  0  0
  -14.3924    6.8207  -19.1726 C   0  0  0  0  0  0  0  0  0  0  0  0
  -13.6100    7.0542  -18.2600 O   0  0  0  0  0  0  0  0  0  0  0  0
  -15.7290    5.6070  -20.1701 H   0  0  0  0  0  0  0  0  0  0  0  0
  -14.5981    7.9404  -20.1467 C   0  0  0  0  0  0  0  0  0  0  0  0
  -14.8281    9.3739  -19.7441 C   0  0  0  0  0  0  0  0  0  0  0  0
  -15.9321    8.5935  -20.4022 C   0  0  0  0  0  0  0  0  0  0  0  0
 23 24  3  0  0  0
 24 13  1  0  0  0
 13 14  1  0  0  0
 13 18  2  0  0  0
 14 15  2  0  0  0
 15 16  1  0  0  0
 16  7  1  0  0  0
 16 17  2  0  0  0
  7  8  1  0  0  0
  7 11  1  0  0  0
  8  9  2  0  0  0
  8 10  1  0  0  0
 10  1  1  0  0  0
 10 12  1  0  0  0
  1  2  1  0  0  0
  1  6  2  0  0  0
  2  3  2  0  0  0
  3  4  1  0  0  0
  4 25  1  0  0  0
  4  5  2  0  0  0
 25 26  1  0  0  0
 26 27  1  0  0  0
 26 31  2  0  0  0
 27 28  2  0  0  0
 28 29  1  0  0  0
 29 30  2  0  0  0
 30 32  1  0  0  0
 30 31  1  0  0  0
 32 33  1  0  0  0
 32 35  1  0  0  0
 33 34  2  0  0  0
 33 36  1  0  0  0
 36 37  1  0  0  0
 36 38  1  0  0  0
 37 38  1  0  0  0
  5  6  1  0  0  0
 17 18  1  0  0  0
 18 19  1  0  0  0
 19 20  1  0  0  0
 19 21  1  0  0  0
 19 22  1  0  0  0
M  END
> <minimizedAffinity>
-8.93601

$$$$
