CHEMBL1094475


 32 35  0  0  0  0  0  0  0  0999 V2000
  -15.6640    0.5296  -14.7579 C   0  0  0  0  0  0  0  0  0  0  0  0
  -14.7441    1.5143  -14.6091 N   0  0  0  0  0  0  0  0  0  0  0  0
  -13.7339    1.3727  -13.7477 C   0  0  0  0  0  0  0  0  0  0  0  0
  -12.8355    2.4095  -13.7351 N   0  0  0  0  0  0  0  0  0  0  0  0
  -13.5210    0.3204  -12.9438 N   0  0  0  0  0  0  0  0  0  0  0  0
  -14.4589   -0.6321  -13.0832 C   0  0  0  0  0  0  0  0  0  0  0  0
  -14.5200   -1.8182  -12.3850 N   0  0  0  0  0  0  0  0  0  0  0  0
  -15.7308   -2.4416  -12.6449 C   0  0  0  0  0  0  0  0  0  0  0  0
  -16.2445   -1.8216  -13.7706 C   0  0  0  0  0  0  0  0  0  0  0  0
  -15.5374   -0.6057  -13.9507 C   0  0  0  0  0  0  0  0  0  0  0  0
  -13.1651    3.2443  -14.1980 H   0  0  0  0  0  0  0  0  0  0  0  0
  -12.1922    2.4526  -12.9644 H   0  0  0  0  0  0  0  0  0  0  0  0
  -13.8144   -2.1012  -11.7154 H   0  0  0  0  0  0  0  0  0  0  0  0
  -16.6958    0.6842  -15.6992 N   0  0  0  0  0  0  0  0  0  0  0  0
  -16.3584    0.7690  -16.6493 H   0  0  0  0  0  0  0  0  0  0  0  0
  -20.2047    1.4026  -14.7239 C   0  0  0  0  0  0  0  0  0  0  0  0
  -20.2492    2.7936  -14.8332 C   0  0  0  0  0  0  0  0  0  0  0  0
  -19.1258    3.4865  -15.2680 C   0  0  0  0  0  0  0  0  0  0  0  0
  -17.9634    2.7865  -15.5873 C   0  0  0  0  0  0  0  0  0  0  0  0
  -17.8895    1.3909  -15.4483 C   0  0  0  0  0  0  0  0  0  0  0  0
  -19.0336    0.7024  -15.0359 C   0  0  0  0  0  0  0  0  0  0  0  0
  -22.3337    0.0785  -13.9437 C   0  0  0  0  0  0  0  0  0  0  0  0
  -21.3818    0.6908  -14.3112 C   0  0  0  0  0  0  0  0  0  0  0  0
  -16.3145   -3.5754  -11.8511 C   0  0  0  0  0  0  0  0  0  0  0  0
  -15.5817   -4.9094  -11.9705 C   0  0  0  0  0  0  0  0  0  0  0  0
  -15.8664   -5.7548  -13.0664 C   0  0  0  0  0  0  0  0  0  0  0  0
  -15.2514   -7.0047  -13.1960 C   0  0  0  0  0  0  0  0  0  0  0  0
  -14.3212   -7.4168  -12.2474 C   0  0  0  0  0  0  0  0  0  0  0  0
  -13.5999   -8.9732  -12.3755 Cl  0  0  0  0  0  0  0  0  0  0  0  0
  -13.9706   -6.5764  -11.1963 C   0  0  0  0  0  0  0  0  0  0  0  0
  -14.5948   -5.3308  -11.0600 C   0  0  0  0  0  0  0  0  0  0  0  0
  -14.0699   -4.3309   -9.7529 Cl  0  0  0  0  0  0  0  0  0  0  0  0
 22 23  3  0  0  0
 23 16  1  0  0  0
 16 17  1  0  0  0
 16 21  2  0  0  0
 17 18  2  0  0  0
 18 19  1  0  0  0
 19 20  2  0  0  0
 20 14  1  0  0  0
 20 21  1  0  0  0
 14  1  1  0  0  0
 14 15  1  0  0  0
  1  2  1  0  0  0
  1 10  2  0  0  0
  2  3  2  0  0  0
  3  4  1  0  0  0
  3  5  1  0  0  0
  4 11  1  0  0  0
  4 12  1  0  0  0
  5  6  2  0  0  0
  6  7  1  0  0  0
  6 10  1  0  0  0
  7  8  1  0  0  0
  7 13  1  0  0  0
  8 24  1  0  0  0
  8  9  2  0  0  0
 24 25  1  0  0  0
 25 26  1  0  0  0
 25 31  2  0  0  0
 26 27  2  0  0  0
 27 28  1  0  0  0
 28 29  1  0  0  0
 28 30  2  0  0  0
 30 31  1  0  0  0
 31 32  1  0  0  0
  9 10  1  0  0  0
M  END
> <minimizedAffinity>
-9.64249

$$$$
