CHEMBL4592212


 39 43  0  0  0  0  0  0  0  0999 V2000
  -14.0479    3.4950  -15.5272 C   0  0  0  0  0  0  0  0  0  0  0  0
  -13.5892    4.7506  -15.9319 C   0  0  0  0  0  0  0  0  0  0  0  0
  -13.3480    4.9160  -17.2950 C   0  0  0  0  0  0  0  0  0  0  0  0
  -13.5756    6.1366  -17.9133 C   0  0  0  0  0  0  0  0  0  0  0  0
  -14.6223    6.1968  -18.8092 C   0  0  0  0  0  0  0  0  0  0  0  0
  -15.0479    4.9987  -19.3724 C   0  0  0  0  0  0  0  0  0  0  0  0
  -14.3349    3.8081  -19.0935 C   0  0  0  0  0  0  0  0  0  0  0  0
  -13.4600    3.7483  -18.0125 C   0  0  0  0  0  0  0  0  0  0  0  0
  -13.0264    2.6057  -17.4210 N   0  0  0  0  0  0  0  0  0  0  0  0
  -13.1795    2.5692  -16.0699 C   0  0  0  0  0  0  0  0  0  0  0  0
  -18.3618    2.4882  -15.6927 C   0  0  0  0  0  0  0  0  0  0  0  0
  -17.8995    3.8034  -15.7165 C   0  0  0  0  0  0  0  0  0  0  0  0
  -16.5386    4.0775  -15.7433 C   0  0  0  0  0  0  0  0  0  0  0  0
  -15.5336    3.0798  -15.7850 C   0  0  0  0  0  0  0  0  0  0  0  0
  -16.0160    1.7593  -15.8658 C   0  0  0  0  0  0  0  0  0  0  0  0
  -17.4114    1.4695  -15.7858 C   0  0  0  0  0  0  0  0  0  0  0  0
  -20.2877    3.2908  -14.5382 C   0  0  0  0  0  0  0  0  0  0  0  0
  -19.6947    2.4318  -15.4897 O   0  0  0  0  0  0  0  0  0  0  0  0
  -15.1270    7.4470  -18.9710 O   0  0  0  0  0  0  0  0  0  0  0  0
  -15.2689    7.9694  -20.2812 C   0  0  0  0  0  0  0  0  0  0  0  0
  -12.6116    1.5158  -15.3312 N   0  0  0  0  0  0  0  0  0  0  0  0
  -11.7520    1.2617  -15.8064 H   0  0  0  0  0  0  0  0  0  0  0  0
  -13.1906    0.4807  -14.5696 C   0  0  0  0  0  0  0  0  0  0  0  0
  -12.9592   -0.8180  -14.9975 C   0  0  0  0  0  0  0  0  0  0  0  0
  -13.6694   -1.9174  -14.4306 C   0  0  0  0  0  0  0  0  0  0  0  0
  -14.6217   -1.7072  -13.4467 C   0  0  0  0  0  0  0  0  0  0  0  0
  -14.7587   -0.4119  -12.9003 C   0  0  0  0  0  0  0  0  0  0  0  0
  -14.0309    0.6518  -13.4582 C   0  0  0  0  0  0  0  0  0  0  0  0
  -15.4756   -2.7545  -12.9720 N   0  0  0  0  0  0  0  0  0  0  0  0
  -15.5054   -3.2372  -11.6662 C   0  0  0  0  0  0  0  0  0  0  0  0
  -14.8745   -2.7760  -10.7108 O   0  0  0  0  0  0  0  0  0  0  0  0
  -15.9908   -3.2985  -13.6467 H   0  0  0  0  0  0  0  0  0  0  0  0
  -16.4645   -4.3967  -11.3962 C   0  0  0  0  0  0  0  0  0  0  0  0
  -15.9546   -5.7592  -11.7118 N   0  0  0  0  0  0  0  0  0  0  0  0
  -16.0162   -6.0356  -13.1627 C   0  0  0  0  0  0  0  0  0  0  0  0
  -15.4094   -7.4045  -13.4913 C   0  0  0  0  0  0  0  0  0  0  0  0
  -13.9601   -7.4970  -13.0279 C   0  0  0  0  0  0  0  0  0  0  0  0
  -13.8619   -7.1318  -11.5533 C   0  0  0  0  0  0  0  0  0  0  0  0
  -14.5330   -5.7889  -11.2759 C   0  0  0  0  0  0  0  0  0  0  0  0
 17 18  1  0  0  0
 18 11  1  0  0  0
 11 12  1  0  0  0
 11 16  2  0  0  0
 12 13  2  0  0  0
 13 14  1  0  0  0
 14  1  1  0  0  0
 14 15  2  0  0  0
  1  2  1  0  0  0
  1 10  2  0  0  0
  2  3  2  0  0  0
  3  4  1  0  0  0
  3  8  1  0  0  0
  4  5  2  0  0  0
  5 19  1  0  0  0
  5  6  1  0  0  0
 19 20  1  0  0  0
  6  7  2  0  0  0
  7  8  1  0  0  0
  8  9  2  0  0  0
  9 10  1  0  0  0
 10 21  1  0  0  0
 21 23  1  0  0  0
 21 22  1  0  0  0
 23 24  1  0  0  0
 23 28  2  0  0  0
 24 25  2  0  0  0
 25 26  1  0  0  0
 26 29  1  0  0  0
 26 27  2  0  0  0
 29 30  1  0  0  0
 29 32  1  0  0  0
 30 31  2  0  0  0
 30 33  1  0  0  0
 33 34  1  0  0  0
 34 35  1  0  0  0
 34 39  1  0  0  0
 35 36  1  0  0  0
 36 37  1  0  0  0
 37 38  1  0  0  0
 38 39  1  0  0  0
 27 28  1  0  0  0
 15 16  1  0  0  0
M  END
> <minimizedAffinity>
-8.13128

$$$$
