CHEMBL4636995


 35 39  0  0  0  0  0  0  0  0999 V2000
  -29.4709   -6.9764   -5.6180 C   0  0  0  0  0  0  0  0  0  0  0  0
  -29.6003   -7.1367   -4.2244 C   0  0  0  0  0  0  0  0  0  0  0  0
  -29.5324   -5.9881   -3.5454 N   0  0  0  0  0  0  0  0  0  0  0  0
  -29.3344   -5.0358   -4.5079 N   0  0  0  0  0  0  0  0  0  0  0  0
  -29.2372   -3.6191   -4.3157 C   0  0  0  0  0  0  0  0  0  0  0  0
  -29.2995   -3.2297   -2.9697 N   0  0  0  0  0  0  0  0  0  0  0  0
  -29.1115   -2.7982   -5.4036 C   0  0  0  0  0  0  0  0  0  0  0  0
  -29.1314   -3.5462   -6.7136 C   0  0  0  0  0  0  0  0  0  0  0  0
  -29.1604   -4.8329   -6.8710 N   0  0  0  0  0  0  0  0  0  0  0  0
  -29.2890   -5.6101   -5.7715 C   0  0  0  0  0  0  0  0  0  0  0  0
  -29.6724   -3.9869   -2.3852 H   0  0  0  0  0  0  0  0  0  0  0  0
  -29.7680   -2.3336   -2.8270 H   0  0  0  0  0  0  0  0  0  0  0  0
  -29.7253   -9.8253   -8.8410 C   0  0  0  0  0  0  0  0  0  0  0  0
  -28.4924   -9.3223   -8.4143 C   0  0  0  0  0  0  0  0  0  0  0  0
  -28.4149   -8.4045   -7.3609 C   0  0  0  0  0  0  0  0  0  0  0  0
  -29.5631   -7.9532   -6.7027 C   0  0  0  0  0  0  0  0  0  0  0  0
  -30.8007   -8.4346   -7.1513 C   0  0  0  0  0  0  0  0  0  0  0  0
  -30.8920   -9.3736   -8.2007 C   0  0  0  0  0  0  0  0  0  0  0  0
  -28.9707  -10.4234  -11.0103 C   0  0  0  0  0  0  0  0  0  0  0  0
  -29.8426  -10.6723   -9.9118 O   0  0  0  0  0  0  0  0  0  0  0  0
  -32.1845   -9.7162   -8.5175 O   0  0  0  0  0  0  0  0  0  0  0  0
  -33.1540   -9.5741   -7.4838 C   0  0  0  0  0  0  0  0  0  0  0  0
  -28.9858   -1.3593   -5.2713 C   0  0  0  0  0  0  0  0  0  0  0  0
  -29.9567   -0.4573   -5.4267 N   0  0  0  0  0  0  0  0  0  0  0  0
  -29.5095    0.8330   -5.1754 C   0  0  0  0  0  0  0  0  0  0  0  0
  -28.1743    0.9516   -4.8802 C   0  0  0  0  0  0  0  0  0  0  0  0
  -27.4737   -0.6001   -4.8177 S   0  0  0  0  0  0  0  0  0  0  0  0
  -29.1705   -2.7920   -7.8501 O   0  0  0  0  0  0  0  0  0  0  0  0
  -27.8912   -2.2170   -8.2633 C   0  0  0  0  0  0  0  0  0  0  0  0
  -28.0478   -0.7948   -8.7912 C   0  0  0  0  0  0  0  0  0  0  0  0
  -28.1921   -0.7163  -10.2967 C   0  0  0  0  0  0  0  0  0  0  0  0
  -27.0756   -1.3615  -10.9780 N   0  0  0  0  0  0  0  0  0  0  0  0
  -27.2488   -1.2260  -12.4301 C   0  0  0  0  0  0  0  0  0  0  0  0
  -26.8723   -2.7617  -10.6126 C   0  0  0  0  0  0  0  0  0  0  0  0
  -27.1371   -3.1859   -9.1663 C   0  0  0  0  0  0  0  0  0  0  0  0
 19 20  1  0  0  0
 20 13  1  0  0  0
 13 14  1  0  0  0
 13 18  2  0  0  0
 14 15  2  0  0  0
 15 16  1  0  0  0
 16  1  1  0  0  0
 16 17  2  0  0  0
  1  2  1  0  0  0
  1 10  2  0  0  0
  2  3  2  0  0  0
  3  4  1  0  0  0
  4  5  1  0  0  0
  4 10  1  0  0  0
  5  6  1  0  0  0
  5  7  2  0  0  0
  6 11  1  0  0  0
  6 12  1  0  0  0
  7 23  1  0  0  0
  7  8  1  0  0  0
 23 24  2  0  0  0
 23 27  1  0  0  0
 24 25  1  0  0  0
 25 26  2  0  0  0
 26 27  1  0  0  0
  8 28  1  0  0  0
  8  9  2  0  0  0
 28 29  1  0  0  0
 29 30  1  0  0  0
 29 35  1  0  0  0
 30 31  1  0  0  0
 31 32  1  0  0  0
 32 33  1  0  0  0
 32 34  1  0  0  0
 34 35  1  0  0  0
  9 10  1  0  0  0
 17 18  1  0  0  0
 18 21  1  0  0  0
 21 22  1  0  0  0
M  END
> <minimizedAffinity>
-6.75298

$$$$
