CHEMBL3764279


 49 53  0  0  0  0  0  0  0  0999 V2000
  -12.0083    2.7704  -13.9977 C   0  0  0  0  0  0  0  0  0  0  0  0
  -10.8333    2.0254  -13.9605 C   0  0  0  0  0  0  0  0  0  0  0  0
  -10.8270    0.6330  -14.1246 C   0  0  0  0  0  0  0  0  0  0  0  0
  -11.9961   -0.1137  -14.3016 C   0  0  0  0  0  0  0  0  0  0  0  0
  -13.1751    0.6277  -14.3899 C   0  0  0  0  0  0  0  0  0  0  0  0
  -14.3451    0.0636  -14.7149 F   0  0  0  0  0  0  0  0  0  0  0  0
  -13.1951    2.0470  -14.2044 C   0  0  0  0  0  0  0  0  0  0  0  0
  -11.8991    6.4535  -14.5813 N   0  0  0  0  0  0  0  0  0  0  0  0
  -12.0694    5.1050  -14.8942 C   0  0  0  0  0  0  0  0  0  0  0  0
  -12.2915    4.7687  -16.0553 O   0  0  0  0  0  0  0  0  0  0  0  0
  -11.9851    4.1999  -13.8250 N   0  0  0  0  0  0  0  0  0  0  0  0
  -11.7279    6.8001  -13.6488 H   0  0  0  0  0  0  0  0  0  0  0  0
  -12.0871    4.5562  -12.8886 H   0  0  0  0  0  0  0  0  0  0  0  0
  -12.1263    8.5959  -15.4824 C   0  0  0  0  0  0  0  0  0  0  0  0
  -11.9837    7.3214  -15.6482 N   0  0  0  0  0  0  0  0  0  0  0  0
  -13.0498    9.9640  -18.9500 C   0  0  0  0  0  0  0  0  0  0  0  0
  -12.3727   11.1938  -18.9169 C   0  0  0  0  0  0  0  0  0  0  0  0
  -11.6595   11.5759  -17.7801 C   0  0  0  0  0  0  0  0  0  0  0  0
  -11.5907   10.7257  -16.6662 C   0  0  0  0  0  0  0  0  0  0  0  0
  -12.2398    9.4838  -16.6825 C   0  0  0  0  0  0  0  0  0  0  0  0
  -12.9840    9.1190  -17.8230 C   0  0  0  0  0  0  0  0  0  0  0  0
  -13.6798    7.9399  -17.8954 O   0  0  0  0  0  0  0  0  0  0  0  0
  -13.5781    7.4500  -17.0469 H   0  0  0  0  0  0  0  0  0  0  0  0
  -13.8044    9.5673  -20.2030 C   0  0  0  0  0  0  0  0  0  0  0  0
  -16.2676    9.1432  -20.6003 C   0  0  0  0  0  0  0  0  0  0  0  0
  -15.2673    9.9110  -20.1378 C   0  0  0  0  0  0  0  0  0  0  0  0
  -11.6762   -1.4446  -14.3862 O   0  0  0  0  0  0  0  0  0  0  0  0
  -11.6792   -2.4537  -13.4589 C   0  0  0  0  0  0  0  0  0  0  0  0
  -11.3215   -2.3581  -12.1070 C   0  0  0  0  0  0  0  0  0  0  0  0
  -11.5231   -3.4377  -11.2679 C   0  0  0  0  0  0  0  0  0  0  0  0
  -11.9525   -4.6052  -11.7046 N   0  0  0  0  0  0  0  0  0  0  0  0
  -12.2751   -4.6855  -12.9757 C   0  0  0  0  0  0  0  0  0  0  0  0
  -12.8759   -5.8641  -13.1888 C   0  0  0  0  0  0  0  0  0  0  0  0
  -13.4417   -6.2219  -14.3989 C   0  0  0  0  0  0  0  0  0  0  0  0
  -13.2866   -5.3784  -15.4982 C   0  0  0  0  0  0  0  0  0  0  0  0
  -12.6553   -4.1192  -15.2842 C   0  0  0  0  0  0  0  0  0  0  0  0
  -12.1834   -3.7076  -13.9673 C   0  0  0  0  0  0  0  0  0  0  0  0
  -13.7217   -5.6546  -16.7765 O   0  0  0  0  0  0  0  0  0  0  0  0
  -12.8613   -6.4630  -17.5962 C   0  0  0  0  0  0  0  0  0  0  0  0
  -14.1681   -7.3713  -14.4588 O   0  0  0  0  0  0  0  0  0  0  0  0
  -15.2416   -7.4524  -13.5257 C   0  0  0  0  0  0  0  0  0  0  0  0
  -16.1220   -6.2861  -13.7963 C   0  0  0  0  0  0  0  0  0  0  0  0
  -16.7781   -5.8417  -12.5025 C   0  0  0  0  0  0  0  0  0  0  0  0
  -16.5903   -4.4038  -12.3288 N   0  0  0  0  0  0  0  0  0  0  0  0
  -15.7733   -4.1059  -11.1442 C   0  0  0  0  0  0  0  0  0  0  0  0
  -15.6896   -2.6057  -10.9241 C   0  0  0  0  0  0  0  0  0  0  0  0
  -15.1305   -1.9141  -12.1558 C   0  0  0  0  0  0  0  0  0  0  0  0
  -15.9158   -2.3110  -13.4017 C   0  0  0  0  0  0  0  0  0  0  0  0
  -16.0022   -3.8271  -13.5399 C   0  0  0  0  0  0  0  0  0  0  0  0
 25 26  2  0  0  0
 26 24  1  0  0  0
 24 16  1  0  0  0
 16 17  1  0  0  0
 16 21  2  0  0  0
 17 18  2  0  0  0
 18 19  1  0  0  0
 19 20  2  0  0  0
 20 14  1  0  0  0
 20 21  1  0  0  0
 14 15  2  0  0  0
 15  8  1  0  0  0
  8  9  1  0  0  0
  8 12  1  0  0  0
  9 10  2  0  0  0
  9 11  1  0  0  0
 11  1  1  0  0  0
 11 13  1  0  0  0
  1  2  1  0  0  0
  1  7  2  0  0  0
  2  3  2  0  0  0
  3  4  1  0  0  0
  4 27  1  0  0  0
  4  5  2  0  0  0
 27 28  1  0  0  0
 28 29  1  0  0  0
 28 37  2  0  0  0
 29 30  2  0  0  0
 30 31  1  0  0  0
 31 32  2  0  0  0
 32 33  1  0  0  0
 32 37  1  0  0  0
 33 34  2  0  0  0
 34 40  1  0  0  0
 34 35  1  0  0  0
 40 41  1  0  0  0
 41 42  1  0  0  0
 42 43  1  0  0  0
 43 44  1  0  0  0
 44 45  1  0  0  0
 44 49  1  0  0  0
 45 46  1  0  0  0
 46 47  1  0  0  0
 47 48  1  0  0  0
 48 49  1  0  0  0
 35 38  1  0  0  0
 35 36  2  0  0  0
 38 39  1  0  0  0
 36 37  1  0  0  0
  5  6  1  0  0  0
  5  7  1  0  0  0
 21 22  1  0  0  0
 22 23  1  0  0  0
M  END
> <minimizedAffinity>
-6.64872

$$$$
