CHEMBL4759423


 32 35  0  0  0  0  0  0  0  0999 V2000
  -15.5210   -0.5908  -14.0225 N   0  0  0  0  0  0  0  0  0  0  0  0
  -15.5911    0.6037  -14.5197 C   0  0  0  0  0  0  0  0  0  0  0  0
  -14.4679    1.6018  -14.8568 C   0  0  0  0  0  0  0  0  0  0  0  0
  -13.2755    1.4420  -14.7083 O   0  0  0  0  0  0  0  0  0  0  0  0
  -15.1248    2.7295  -15.3394 N   0  0  0  0  0  0  0  0  0  0  0  0
  -16.5136    2.5281  -15.3701 C   0  0  0  0  0  0  0  0  0  0  0  0
  -17.5095    3.3733  -15.8261 C   0  0  0  0  0  0  0  0  0  0  0  0
  -18.8362    2.9250  -15.7559 C   0  0  0  0  0  0  0  0  0  0  0  0
  -19.1439    1.6569  -15.2280 C   0  0  0  0  0  0  0  0  0  0  0  0
  -20.7865    1.1487  -15.1580 Cl  0  0  0  0  0  0  0  0  0  0  0  0
  -18.1399    0.8055  -14.7740 C   0  0  0  0  0  0  0  0  0  0  0  0
  -16.8415    1.2685  -14.8685 C   0  0  0  0  0  0  0  0  0  0  0  0
  -14.1395   -4.0097  -11.4726 C   0  0  0  0  0  0  0  0  0  0  0  0
  -15.3310   -2.8969  -12.1378 S   0  0  0  0  0  0  0  0  0  0  0  0
  -14.0691   -2.0565  -13.0699 C   0  0  0  0  0  0  0  0  0  0  0  0
  -14.2212   -1.0382  -13.8542 N   0  0  0  0  0  0  0  0  0  0  0  0
  -12.8755   -2.6781  -12.8130 N   0  0  0  0  0  0  0  0  0  0  0  0
  -12.9029   -3.7596  -11.9520 C   0  0  0  0  0  0  0  0  0  0  0  0
  -11.6504   -4.5240  -11.6724 C   0  0  0  0  0  0  0  0  0  0  0  0
  -12.0281   -2.3553  -13.2563 H   0  0  0  0  0  0  0  0  0  0  0  0
  -14.5083   -5.1122  -10.5568 C   0  0  0  0  0  0  0  0  0  0  0  0
  -14.1542   -5.1757   -9.3873 O   0  0  0  0  0  0  0  0  0  0  0  0
  -15.2138   -6.0684  -11.2116 O   0  0  0  0  0  0  0  0  0  0  0  0
  -15.1948   -7.1785  -13.3229 C   0  0  0  0  0  0  0  0  0  0  0  0
  -14.4446   -6.9659  -12.0202 C   0  0  0  0  0  0  0  0  0  0  0  0
  -14.4521    3.9923  -15.5471 C   0  0  0  0  0  0  0  0  0  0  0  0
  -14.0146    4.1549  -16.9880 C   0  0  0  0  0  0  0  0  0  0  0  0
  -12.7322    3.7482  -17.3897 C   0  0  0  0  0  0  0  0  0  0  0  0
  -12.2916    3.9697  -18.6962 C   0  0  0  0  0  0  0  0  0  0  0  0
  -13.1251    4.6048  -19.6141 C   0  0  0  0  0  0  0  0  0  0  0  0
  -14.4043    5.0041  -19.2318 C   0  0  0  0  0  0  0  0  0  0  0  0
  -14.8484    4.7774  -17.9277 C   0  0  0  0  0  0  0  0  0  0  0  0
 24 25  1  0  0  0
 25 23  1  0  0  0
 23 21  1  0  0  0
 21 22  2  0  0  0
 21 13  1  0  0  0
 13 14  1  0  0  0
 13 18  2  0  0  0
 14 15  1  0  0  0
 15 16  2  0  0  0
 15 17  1  0  0  0
 16  1  1  0  0  0
  1  2  2  0  0  0
  2  3  1  0  0  0
  2 12  1  0  0  0
  3  4  2  0  0  0
  3  5  1  0  0  0
  5 26  1  0  0  0
  5  6  1  0  0  0
 26 27  1  0  0  0
 27 28  1  0  0  0
 27 32  2  0  0  0
 28 29  2  0  0  0
 29 30  1  0  0  0
 30 31  2  0  0  0
 31 32  1  0  0  0
  6  7  1  0  0  0
  6 12  2  0  0  0
  7  8  2  0  0  0
  8  9  1  0  0  0
  9 10  1  0  0  0
  9 11  2  0  0  0
 11 12  1  0  0  0
 17 18  1  0  0  0
 17 20  1  0  0  0
 18 19  1  0  0  0
M  END
> <minimizedAffinity>
-7.63229

$$$$
