CHEMBL205463


 29 32  0  0  0  0  0  0  0  0999 V2000
  -29.9641   -8.1504   -7.7289 C   0  0  0  0  0  0  0  0  0  0  0  0
  -28.8313   -8.8349   -7.1512 N   0  0  0  0  0  0  0  0  0  0  0  0
  -28.0301   -9.7254   -7.8124 C   0  0  0  0  0  0  0  0  0  0  0  0
  -27.1306  -10.2551   -7.0128 N   0  0  0  0  0  0  0  0  0  0  0  0
  -27.3286   -9.6395   -5.8141 C   0  0  0  0  0  0  0  0  0  0  0  0
  -28.3823   -8.7587   -5.8546 C   0  0  0  0  0  0  0  0  0  0  0  0
  -28.9730   -7.9884   -4.8152 C   0  0  0  0  0  0  0  0  0  0  0  0
  -29.0632   -8.3927   -3.5644 N   0  0  0  0  0  0  0  0  0  0  0  0
  -29.6609   -7.3784   -2.8636 N   0  0  0  0  0  0  0  0  0  0  0  0
  -29.8995   -6.4065   -3.7163 C   0  0  0  0  0  0  0  0  0  0  0  0
  -29.4931   -6.7245   -4.9809 O   0  0  0  0  0  0  0  0  0  0  0  0
  -30.4597   -5.1931   -3.5653 N   0  0  0  0  0  0  0  0  0  0  0  0
  -31.3501   -5.1498   -3.0886 H   0  0  0  0  0  0  0  0  0  0  0  0
  -29.9616   -3.9650   -4.0382 C   0  0  0  0  0  0  0  0  0  0  0  0
  -30.3731   -3.3788   -5.2454 C   0  0  0  0  0  0  0  0  0  0  0  0
  -29.8383   -2.1681   -5.6918 C   0  0  0  0  0  0  0  0  0  0  0  0
  -28.8727   -1.5235   -4.9316 C   0  0  0  0  0  0  0  0  0  0  0  0
  -28.1506    0.1145   -5.5350 Br  0  0  0  0  0  0  0  0  0  0  0  0
  -28.4363   -2.0819   -3.7342 C   0  0  0  0  0  0  0  0  0  0  0  0
  -28.9777   -3.2951   -3.2933 C   0  0  0  0  0  0  0  0  0  0  0  0
  -26.5748   -9.9130   -4.7376 N   0  0  0  0  0  0  0  0  0  0  0  0
  -26.9082  -10.5541   -4.0259 H   0  0  0  0  0  0  0  0  0  0  0  0
  -25.4264   -9.1169   -4.3731 C   0  0  0  0  0  0  0  0  0  0  0  0
  -24.1711   -9.8983   -4.7007 C   0  0  0  0  0  0  0  0  0  0  0  0
  -23.5567  -10.7016   -3.7304 C   0  0  0  0  0  0  0  0  0  0  0  0
  -22.4153  -11.4109   -4.0707 C   0  0  0  0  0  0  0  0  0  0  0  0
  -21.8501  -11.3763   -5.2954 N   0  0  0  0  0  0  0  0  0  0  0  0
  -22.4595  -10.6047   -6.2207 C   0  0  0  0  0  0  0  0  0  0  0  0
  -23.6034   -9.8569   -5.9765 C   0  0  0  0  0  0  0  0  0  0  0  0
  1  2  1  0  0  0
  2  3  1  0  0  0
  2  6  1  0  0  0
  3  4  2  0  0  0
  4  5  1  0  0  0
  5 21  1  0  0  0
  5  6  2  0  0  0
 21 23  1  0  0  0
 21 22  1  0  0  0
 23 24  1  0  0  0
 24 25  1  0  0  0
 24 29  2  0  0  0
 25 26  2  0  0  0
 26 27  1  0  0  0
 27 28  2  0  0  0
 28 29  1  0  0  0
  6  7  1  0  0  0
  7  8  2  0  0  0
  7 11  1  0  0  0
  8  9  1  0  0  0
  9 10  2  0  0  0
 10 12  1  0  0  0
 10 11  1  0  0  0
 12 14  1  0  0  0
 12 13  1  0  0  0
 14 15  1  0  0  0
 14 20  2  0  0  0
 15 16  2  0  0  0
 16 17  1  0  0  0
 17 18  1  0  0  0
 17 19  2  0  0  0
 19 20  1  0  0  0
M  END
> <minimizedAffinity>
-8.03052

$$$$
