CHEMBL3945277


 35 38  0  0  0  0  0  0  0  0999 V2000
  -14.4809    3.8398  -16.5679 N   0  0  0  0  0  0  0  0  0  0  0  0
  -15.6368    3.2706  -15.8346 C   0  0  0  0  0  0  0  0  0  0  0  0
  -15.3084    2.0865  -15.1550 C   0  0  0  0  0  0  0  0  0  0  0  0
  -16.2287    1.1394  -14.9078 C   0  0  0  0  0  0  0  0  0  0  0  0
  -17.5208    1.3514  -15.1884 C   0  0  0  0  0  0  0  0  0  0  0  0
  -18.2832    0.2637  -15.2161 N   0  0  0  0  0  0  0  0  0  0  0  0
  -19.5911    0.3265  -15.3478 C   0  0  0  0  0  0  0  0  0  0  0  0
  -20.2079    1.5512  -15.1257 C   0  0  0  0  0  0  0  0  0  0  0  0
  -19.4486    2.7189  -15.3485 N   0  0  0  0  0  0  0  0  0  0  0  0
  -18.0501    2.6139  -15.4881 C   0  0  0  0  0  0  0  0  0  0  0  0
  -17.0634    3.6295  -15.8972 C   0  0  0  0  0  0  0  0  0  0  0  0
  -21.4262    1.3483  -14.2065 C   0  0  0  0  0  0  0  0  0  0  0  0
  -22.3808    2.3839  -14.0502 C   0  0  0  0  0  0  0  0  0  0  0  0
  -23.4568    1.9566  -13.4005 N   0  0  0  0  0  0  0  0  0  0  0  0
  -23.2642    0.6881  -13.1169 N   0  0  0  0  0  0  0  0  0  0  0  0
  -24.3398   -0.0648  -12.4943 C   0  0  0  0  0  0  0  0  0  0  0  0
  -22.0397    0.2681  -13.5599 C   0  0  0  0  0  0  0  0  0  0  0  0
  -12.4658    3.6029  -19.7881 C   0  0  0  0  0  0  0  0  0  0  0  0
  -12.6543    2.2508  -20.1319 C   0  0  0  0  0  0  0  0  0  0  0  0
  -13.4356    1.4208  -19.3409 C   0  0  0  0  0  0  0  0  0  0  0  0
  -14.0459    1.9536  -18.1943 C   0  0  0  0  0  0  0  0  0  0  0  0
  -13.8892    3.3221  -17.8015 C   0  0  0  0  0  0  0  0  0  0  0  0
  -13.0763    4.1238  -18.6273 C   0  0  0  0  0  0  0  0  0  0  0  0
  -11.7812    5.8099  -20.5586 C   0  0  0  0  0  0  0  0  0  0  0  0
  -11.7006    4.4301  -20.5479 O   0  0  0  0  0  0  0  0  0  0  0  0
  -13.5689    0.1143  -19.7098 O   0  0  0  0  0  0  0  0  0  0  0  0
  -13.5248   -0.9875  -18.8741 C   0  0  0  0  0  0  0  0  0  0  0  0
  -13.8714    5.0431  -15.8754 C   0  0  0  0  0  0  0  0  0  0  0  0
  -12.4659    4.6996  -15.2694 C   0  0  0  0  0  0  0  0  0  0  0  0
  -11.6808    6.0081  -15.1243 C   0  0  0  0  0  0  0  0  0  0  0  0
  -12.4936    4.0126  -13.9496 N   0  0  0  0  0  0  0  0  0  0  0  0
  -13.4796    3.8946  -13.6211 H   0  0  0  0  0  0  0  0  0  0  0  0
  -11.7466    2.7426  -13.7391 C   0  0  0  0  0  0  0  0  0  0  0  0
  -12.4587    1.7408  -12.8219 C   0  0  0  0  0  0  0  0  0  0  0  0
  -11.5497    2.0520  -15.0996 C   0  0  0  0  0  0  0  0  0  0  0  0
 24 25  1  0  0  0
 25 18  1  0  0  0
 18 19  1  0  0  0
 18 23  2  0  0  0
 19 20  2  0  0  0
 20 26  1  0  0  0
 20 21  1  0  0  0
 26 27  1  0  0  0
 21 22  2  0  0  0
 22  1  1  0  0  0
 22 23  1  0  0  0
  1 28  1  0  0  0
  1  2  1  0  0  0
 28 29  1  0  0  0
 29 30  1  0  0  0
 29 31  1  0  0  0
 31 33  1  0  0  0
 31 32  1  0  0  0
 33 34  1  0  0  0
 33 35  1  0  0  0
  2  3  1  0  0  0
  2 11  2  0  0  0
  3  4  2  0  0  0
  4  5  1  0  0  0
  5  6  1  0  0  0
  5 10  2  0  0  0
  6  7  2  0  0  0
  7  8  1  0  0  0
  8 12  1  0  0  0
  8  9  2  0  0  0
 12 13  1  0  0  0
 12 17  2  0  0  0
 13 14  2  0  0  0
 14 15  1  0  0  0
 15 16  1  0  0  0
 15 17  1  0  0  0
  9 10  1  0  0  0
 10 11  1  0  0  0
M  END
> <minimizedAffinity>
-6.62375

$$$$
