CHEMBL2385591


 32 37  0  0  0  0  0  0  0  0999 V2000
  -14.9808   -5.1463  -12.0116 C   0  0  0  0  0  0  0  0  0  0  0  0
  -15.9109   -4.7557  -11.0203 C   0  0  0  0  0  0  0  0  0  0  0  0
  -16.3336   -3.4999  -11.1442 N   0  0  0  0  0  0  0  0  0  0  0  0
  -15.6084   -3.0089  -12.1731 N   0  0  0  0  0  0  0  0  0  0  0  0
  -15.6255   -1.7055  -12.6529 C   0  0  0  0  0  0  0  0  0  0  0  0
  -14.8085   -1.3400  -13.6508 C   0  0  0  0  0  0  0  0  0  0  0  0
  -13.9451   -2.4357  -14.1864 C   0  0  0  0  0  0  0  0  0  0  0  0
  -13.9228   -3.6693  -13.7769 N   0  0  0  0  0  0  0  0  0  0  0  0
  -14.7615   -3.9786  -12.7327 C   0  0  0  0  0  0  0  0  0  0  0  0
  -14.2044   -8.5427  -13.4315 C   0  0  0  0  0  0  0  0  0  0  0  0
  -14.8374   -7.3336  -13.1563 C   0  0  0  0  0  0  0  0  0  0  0  0
  -14.3042   -6.4364  -12.2182 C   0  0  0  0  0  0  0  0  0  0  0  0
  -13.0884   -6.7850  -11.5349 C   0  0  0  0  0  0  0  0  0  0  0  0
  -12.4527   -6.0175  -10.5281 C   0  0  0  0  0  0  0  0  0  0  0  0
  -11.2422   -6.4105   -9.9669 C   0  0  0  0  0  0  0  0  0  0  0  0
  -10.6965   -7.5992  -10.3909 C   0  0  0  0  0  0  0  0  0  0  0  0
  -11.2775   -8.3979  -11.3067 N   0  0  0  0  0  0  0  0  0  0  0  0
  -12.4396   -8.0031  -11.8586 C   0  0  0  0  0  0  0  0  0  0  0  0
  -13.0128   -8.8548  -12.7866 C   0  0  0  0  0  0  0  0  0  0  0  0
  -14.7708    0.0127  -14.1913 C   0  0  0  0  0  0  0  0  0  0  0  0
  -13.5729    0.7232  -14.2607 C   0  0  0  0  0  0  0  0  0  0  0  0
  -13.5502    2.0139  -14.8064 C   0  0  0  0  0  0  0  0  0  0  0  0
  -14.7112    2.6368  -15.2875 C   0  0  0  0  0  0  0  0  0  0  0  0
  -15.9042    1.9043  -15.1874 C   0  0  0  0  0  0  0  0  0  0  0  0
  -15.9414    0.6135  -14.6485 C   0  0  0  0  0  0  0  0  0  0  0  0
  -14.6928    3.9070  -15.8234 N   0  0  0  0  0  0  0  0  0  0  0  0
  -15.6960    4.3910  -16.7825 C   0  0  0  0  0  0  0  0  0  0  0  0
  -15.0093    4.9481  -18.0493 C   0  0  0  0  0  0  0  0  0  0  0  0
  -13.9825    5.9745  -17.7621 N   0  0  0  0  0  0  0  0  0  0  0  0
  -12.9955    5.4020  -16.8210 C   0  0  0  0  0  0  0  0  0  0  0  0
  -13.6189    4.8618  -15.5116 C   0  0  0  0  0  0  0  0  0  0  0  0
  -14.4423    6.7560  -17.2946 H   0  0  0  0  0  0  0  0  0  0  0  0
 10 11  1  0  0  0
 10 19  2  0  0  0
 11 12  2  0  0  0
 12  1  1  0  0  0
 12 13  1  0  0  0
  1  2  1  0  0  0
  1  9  2  0  0  0
  2  3  2  0  0  0
  3  4  1  0  0  0
  4  5  1  0  0  0
  4  9  1  0  0  0
  5  6  2  0  0  0
  6 20  1  0  0  0
  6  7  1  0  0  0
 20 21  1  0  0  0
 20 25  2  0  0  0
 21 22  2  0  0  0
 22 23  1  0  0  0
 23 26  1  0  0  0
 23 24  2  0  0  0
 26 27  1  0  0  0
 26 31  1  0  0  0
 27 28  1  0  0  0
 28 29  1  0  0  0
 29 30  1  0  0  0
 29 32  1  0  0  0
 30 31  1  0  0  0
 24 25  1  0  0  0
  7  8  2  0  0  0
  8  9  1  0  0  0
 13 14  1  0  0  0
 13 18  2  0  0  0
 14 15  2  0  0  0
 15 16  1  0  0  0
 16 17  2  0  0  0
 17 18  1  0  0  0
 18 19  1  0  0  0
M  END
> <minimizedAffinity>
-7.91565

$$$$
