CHEMBL3694687


 39 42  0  0  0  0  0  0  0  0999 V2000
  -25.2508   -1.2981  -11.9411 C   0  0  0  0  0  0  0  0  0  0  0  0
  -26.1739   -1.6750  -12.9188 C   0  0  0  0  0  0  0  0  0  0  0  0
  -27.5187   -1.8692  -12.6008 C   0  0  0  0  0  0  0  0  0  0  0  0
  -27.9307   -1.6867  -11.2783 C   0  0  0  0  0  0  0  0  0  0  0  0
  -27.0114   -1.4575  -10.2469 C   0  0  0  0  0  0  0  0  0  0  0  0
  -25.6696   -1.2277  -10.5985 C   0  0  0  0  0  0  0  0  0  0  0  0
  -27.4428   -1.4784   -8.8408 C   0  0  0  0  0  0  0  0  0  0  0  0
  -27.5318   -0.4548   -7.9110 C   0  0  0  0  0  0  0  0  0  0  0  0
  -27.9952   -0.8918   -6.6962 N   0  0  0  0  0  0  0  0  0  0  0  0
  -28.1974   -2.1839   -6.8444 C   0  0  0  0  0  0  0  0  0  0  0  0
  -28.6793   -3.1689   -5.9276 C   0  0  0  0  0  0  0  0  0  0  0  0
  -28.7737   -4.4759   -6.2837 C   0  0  0  0  0  0  0  0  0  0  0  0
  -28.3867   -4.8640   -7.6460 C   0  0  0  0  0  0  0  0  0  0  0  0
  -27.9115   -3.9497   -8.5018 C   0  0  0  0  0  0  0  0  0  0  0  0
  -27.8393   -2.6073   -8.1235 N   0  0  0  0  0  0  0  0  0  0  0  0
  -29.2666   -5.4751   -5.2950 C   0  0  0  0  0  0  0  0  0  0  0  0
  -30.3691   -5.2051   -4.5062 C   0  0  0  0  0  0  0  0  0  0  0  0
  -30.7244   -6.1688   -3.5967 C   0  0  0  0  0  0  0  0  0  0  0  0
  -30.0664   -7.3299   -3.4579 N   0  0  0  0  0  0  0  0  0  0  0  0
  -29.0024   -7.5380   -4.2724 C   0  0  0  0  0  0  0  0  0  0  0  0
  -28.5843   -6.6349   -5.1959 N   0  0  0  0  0  0  0  0  0  0  0  0
  -28.2293   -8.8573   -4.1483 C   0  0  0  0  0  0  0  0  0  0  0  0
  -28.8903   -9.9373   -4.6671 F   0  0  0  0  0  0  0  0  0  0  0  0
  -27.0230   -8.8317   -4.7908 F   0  0  0  0  0  0  0  0  0  0  0  0
  -27.9511   -9.1952   -2.8532 F   0  0  0  0  0  0  0  0  0  0  0  0
  -24.0968    1.1997  -13.0157 O   0  0  0  0  0  0  0  0  0  0  0  0
  -23.4412    0.1980  -12.7631 C   0  0  0  0  0  0  0  0  0  0  0  0
  -22.0757    0.1733  -12.9468 N   0  0  0  0  0  0  0  0  0  0  0  0
  -23.9062   -0.9940  -12.2463 N   0  0  0  0  0  0  0  0  0  0  0  0
  -21.6824   -0.7315  -13.1650 H   0  0  0  0  0  0  0  0  0  0  0  0
  -23.2037   -1.6197  -11.8799 H   0  0  0  0  0  0  0  0  0  0  0  0
  -21.4350    1.3322  -13.5814 C   0  0  0  0  0  0  0  0  0  0  0  0
  -20.4439    0.9998  -14.7062 C   0  0  0  0  0  0  0  0  0  0  0  0
  -19.1597    1.1818  -14.3186 F   0  0  0  0  0  0  0  0  0  0  0  0
  -20.5734   -0.2666  -15.1508 F   0  0  0  0  0  0  0  0  0  0  0  0
  -20.6523    1.8244  -15.7628 F   0  0  0  0  0  0  0  0  0  0  0  0
  -28.5119   -2.2893  -13.6464 C   0  0  0  0  0  0  0  0  0  0  0  0
  -28.0635   -1.8397  -14.9218 O   0  0  0  0  0  0  0  0  0  0  0  0
  -28.0104   -0.8696  -14.8657 H   0  0  0  0  0  0  0  0  0  0  0  0
 26 27  2  0  0  0
 27 28  1  0  0  0
 27 29  1  0  0  0
 28 32  1  0  0  0
 28 30  1  0  0  0
 32 33  1  0  0  0
 33 34  1  0  0  0
 33 35  1  0  0  0
 33 36  1  0  0  0
 29  1  1  0  0  0
 29 31  1  0  0  0
  1  2  1  0  0  0
  1  6  2  0  0  0
  2  3  2  0  0  0
  3 37  1  0  0  0
  3  4  1  0  0  0
 37 38  1  0  0  0
 38 39  1  0  0  0
  4  5  2  0  0  0
  5  7  1  0  0  0
  5  6  1  0  0  0
  7  8  2  0  0  0
  7 15  1  0  0  0
  8  9  1  0  0  0
  9 10  2  0  0  0
 10 11  1  0  0  0
 10 15  1  0  0  0
 11 12  2  0  0  0
 12 16  1  0  0  0
 12 13  1  0  0  0
 16 17  1  0  0  0
 16 21  2  0  0  0
 17 18  2  0  0  0
 18 19  1  0  0  0
 19 20  2  0  0  0
 20 22  1  0  0  0
 20 21  1  0  0  0
 22 23  1  0  0  0
 22 24  1  0  0  0
 22 25  1  0  0  0
 13 14  2  0  0  0
 14 15  1  0  0  0
M  END
> <minimizedAffinity>
-9.49828

$$$$
