CHEMBL98385


 20 22  0  0  0  0  0  0  0  0999 V2000
  -20.4063    2.7477  -14.8956 C   0  0  0  0  0  0  0  0  0  0  0  0
  -21.4483    3.4180  -14.4544 N   0  0  0  0  0  0  0  0  0  0  0  0
  -22.3849    2.5721  -13.9061 C   0  0  0  0  0  0  0  0  0  0  0  0
  -22.0774    1.2282  -13.9322 C   0  0  0  0  0  0  0  0  0  0  0  0
  -20.5154    1.0453  -14.6335 S   0  0  0  0  0  0  0  0  0  0  0  0
  -22.8832    0.0934  -13.4646 C   0  0  0  0  0  0  0  0  0  0  0  0
  -22.6129   -0.4879  -12.2146 C   0  0  0  0  0  0  0  0  0  0  0  0
  -23.3297   -1.5994  -11.7626 C   0  0  0  0  0  0  0  0  0  0  0  0
  -24.3357   -2.1436  -12.5547 C   0  0  0  0  0  0  0  0  0  0  0  0
  -24.6257   -1.5758  -13.7925 C   0  0  0  0  0  0  0  0  0  0  0  0
  -23.9051   -0.4664  -14.2442 C   0  0  0  0  0  0  0  0  0  0  0  0
  -19.3245    3.2800  -15.4996 N   0  0  0  0  0  0  0  0  0  0  0  0
  -19.4192    4.0751  -16.1150 H   0  0  0  0  0  0  0  0  0  0  0  0
  -16.1606    0.4809  -13.2943 C   0  0  0  0  0  0  0  0  0  0  0  0
  -16.4507    1.4445  -14.4059 C   0  0  0  0  0  0  0  0  0  0  0  0
  -15.4532    1.7848  -15.3103 C   0  0  0  0  0  0  0  0  0  0  0  0
  -15.7609    2.6707  -16.3272 C   0  0  0  0  0  0  0  0  0  0  0  0
  -17.0470    3.1909  -16.4027 C   0  0  0  0  0  0  0  0  0  0  0  0
  -18.0082    2.8199  -15.4656 C   0  0  0  0  0  0  0  0  0  0  0  0
  -17.7135    1.9425  -14.4781 N   0  0  0  0  0  0  0  0  0  0  0  0
 14 15  1  0  0  0
 15 16  1  0  0  0
 15 20  2  0  0  0
 16 17  2  0  0  0
 17 18  1  0  0  0
 18 19  2  0  0  0
 19 12  1  0  0  0
 19 20  1  0  0  0
 12  1  1  0  0  0
 12 13  1  0  0  0
  1  2  2  0  0  0
  1  5  1  0  0  0
  2  3  1  0  0  0
  3  4  2  0  0  0
  4  6  1  0  0  0
  4  5  1  0  0  0
  6  7  1  0  0  0
  6 11  2  0  0  0
  7  8  2  0  0  0
  8  9  1  0  0  0
  9 10  2  0  0  0
 10 11  1  0  0  0
M  END
> <minimizedAffinity>
-8.52644

$$$$
