CHEMBL3703194


 38 42  0  0  0  0  0  0  0  0999 V2000
  -15.1494   -2.8376  -13.5562 C   0  0  0  0  0  0  0  0  0  0  0  0
  -13.9315   -3.2477  -13.0223 C   0  0  0  0  0  0  0  0  0  0  0  0
  -13.8290   -4.5248  -12.4599 C   0  0  0  0  0  0  0  0  0  0  0  0
  -14.9508   -5.3491  -12.4078 C   0  0  0  0  0  0  0  0  0  0  0  0
  -16.1095   -4.8715  -12.9938 C   0  0  0  0  0  0  0  0  0  0  0  0
  -16.2244   -3.6453  -13.5536 N   0  0  0  0  0  0  0  0  0  0  0  0
  -15.5230   -0.4055  -13.4094 C   0  0  0  0  0  0  0  0  0  0  0  0
  -15.7005   -0.3250  -12.1958 O   0  0  0  0  0  0  0  0  0  0  0  0
  -15.2305   -1.5560  -14.1182 N   0  0  0  0  0  0  0  0  0  0  0  0
  -15.0535   -1.4733  -15.1177 H   0  0  0  0  0  0  0  0  0  0  0  0
  -18.0686    1.2221  -14.5205 C   0  0  0  0  0  0  0  0  0  0  0  0
  -16.6144    1.5599  -14.6584 C   0  0  0  0  0  0  0  0  0  0  0  0
  -15.5609    0.8222  -14.2414 C   0  0  0  0  0  0  0  0  0  0  0  0
  -14.3824    1.4698  -14.8735 C   0  0  0  0  0  0  0  0  0  0  0  0
  -13.2317    1.1001  -14.6794 O   0  0  0  0  0  0  0  0  0  0  0  0
  -14.8594    2.5272  -15.6551 N   0  0  0  0  0  0  0  0  0  0  0  0
  -16.2146    2.7234  -15.3416 N   0  0  0  0  0  0  0  0  0  0  0  0
  -17.0704    3.4046  -16.3099 C   0  0  0  0  0  0  0  0  0  0  0  0
  -14.0052    3.5135  -16.1769 C   0  0  0  0  0  0  0  0  0  0  0  0
  -13.5896    4.5370  -15.3145 C   0  0  0  0  0  0  0  0  0  0  0  0
  -12.7467    5.5496  -15.7676 C   0  0  0  0  0  0  0  0  0  0  0  0
  -12.3428    5.5664  -17.0997 C   0  0  0  0  0  0  0  0  0  0  0  0
  -12.7652    4.5593  -17.9708 C   0  0  0  0  0  0  0  0  0  0  0  0
  -13.5801    3.5206  -17.5076 C   0  0  0  0  0  0  0  0  0  0  0  0
  -14.9863   -6.6110  -11.8629 O   0  0  0  0  0  0  0  0  0  0  0  0
  -14.1851   -7.5984  -12.3968 C   0  0  0  0  0  0  0  0  0  0  0  0
  -13.2772   -8.3367  -11.6461 C   0  0  0  0  0  0  0  0  0  0  0  0
  -12.4799   -9.2364  -12.3142 C   0  0  0  0  0  0  0  0  0  0  0  0
  -12.5762   -9.4715  -13.6328 N   0  0  0  0  0  0  0  0  0  0  0  0
  -13.5149   -8.8210  -14.3424 C   0  0  0  0  0  0  0  0  0  0  0  0
  -14.3499   -7.8782  -13.7558 C   0  0  0  0  0  0  0  0  0  0  0  0
  -13.6658   -9.1000  -15.7101 N   0  0  0  0  0  0  0  0  0  0  0  0
  -12.7454   -8.7414  -16.6732 C   0  0  0  0  0  0  0  0  0  0  0  0
  -11.7122   -8.1062  -16.5248 O   0  0  0  0  0  0  0  0  0  0  0  0
  -14.4901   -9.6034  -15.9956 H   0  0  0  0  0  0  0  0  0  0  0  0
  -13.0977   -9.2316  -18.0444 C   0  0  0  0  0  0  0  0  0  0  0  0
  -12.2501   -8.7890  -19.2177 C   0  0  0  0  0  0  0  0  0  0  0  0
  -13.6514   -8.2728  -19.0782 C   0  0  0  0  0  0  0  0  0  0  0  0
 11 12  1  0  0  0
 12 13  2  0  0  0
 12 17  1  0  0  0
 13  7  1  0  0  0
 13 14  1  0  0  0
  7  8  2  0  0  0
  7  9  1  0  0  0
  9  1  1  0  0  0
  9 10  1  0  0  0
  1  2  1  0  0  0
  1  6  2  0  0  0
  2  3  2  0  0  0
  3  4  1  0  0  0
  4 25  1  0  0  0
  4  5  2  0  0  0
 25 26  1  0  0  0
 26 27  1  0  0  0
 26 31  2  0  0  0
 27 28  2  0  0  0
 28 29  1  0  0  0
 29 30  2  0  0  0
 30 32  1  0  0  0
 30 31  1  0  0  0
 32 33  1  0  0  0
 32 35  1  0  0  0
 33 34  2  0  0  0
 33 36  1  0  0  0
 36 37  1  0  0  0
 36 38  1  0  0  0
 37 38  1  0  0  0
  5  6  1  0  0  0
 14 15  2  0  0  0
 14 16  1  0  0  0
 16 19  1  0  0  0
 16 17  1  0  0  0
 19 20  1  0  0  0
 19 24  2  0  0  0
 20 21  2  0  0  0
 21 22  1  0  0  0
 22 23  2  0  0  0
 23 24  1  0  0  0
 17 18  1  0  0  0
M  END
> <minimizedAffinity>
-7.93129

$$$$
