CHEMBL3900571


 43 45  0  0  0  0  0  0  0  0999 V2000
  -21.0885    1.5002  -14.1637 C   0  0  0  0  0  0  0  0  0  0  0  0
  -19.8836    0.8468  -14.4502 C   0  0  0  0  0  0  0  0  0  0  0  0
  -18.7442    1.6081  -14.7220 C   0  0  0  0  0  0  0  0  0  0  0  0
  -18.8552    2.9895  -14.6473 C   0  0  0  0  0  0  0  0  0  0  0  0
  -20.0087    3.6476  -14.3636 N   0  0  0  0  0  0  0  0  0  0  0  0
  -21.1130    2.9046  -14.1504 C   0  0  0  0  0  0  0  0  0  0  0  0
  -22.2964    3.6296  -14.0369 N   0  0  0  0  0  0  0  0  0  0  0  0
  -22.0657    4.6165  -13.9660 H   0  0  0  0  0  0  0  0  0  0  0  0
  -22.9165    3.2979  -13.3115 H   0  0  0  0  0  0  0  0  0  0  0  0
  -23.2885    0.1175  -13.6999 C   0  0  0  0  0  0  0  0  0  0  0  0
  -22.2730    0.7327  -13.8983 C   0  0  0  0  0  0  0  0  0  0  0  0
  -26.4365   -1.2699  -12.2233 C   0  0  0  0  0  0  0  0  0  0  0  0
  -26.9454   -1.9517  -13.3426 C   0  0  0  0  0  0  0  0  0  0  0  0
  -26.2225   -2.0043  -14.5350 C   0  0  0  0  0  0  0  0  0  0  0  0
  -25.0007   -1.3440  -14.6294 C   0  0  0  0  0  0  0  0  0  0  0  0
  -24.5062   -0.6163  -13.5413 C   0  0  0  0  0  0  0  0  0  0  0  0
  -25.2213   -0.5798  -12.3344 C   0  0  0  0  0  0  0  0  0  0  0  0
  -26.9495   -2.2518  -10.0286 N   0  0  0  0  0  0  0  0  0  0  0  0
  -27.2600   -1.2800  -10.9733 C   0  0  0  0  0  0  0  0  0  0  0  0
  -28.1621   -0.4537  -10.8935 O   0  0  0  0  0  0  0  0  0  0  0  0
  -26.2069   -2.9007  -10.2480 H   0  0  0  0  0  0  0  0  0  0  0  0
  -28.3675   -0.3916   -5.6540 C   0  0  0  0  0  0  0  0  0  0  0  0
  -28.3213   -1.5313   -6.6311 C   0  0  0  0  0  0  0  0  0  0  0  0
  -28.9197   -2.7516   -6.3060 C   0  0  0  0  0  0  0  0  0  0  0  0
  -28.8400   -3.8228   -7.1897 C   0  0  0  0  0  0  0  0  0  0  0  0
  -28.1786   -3.6817   -8.4132 C   0  0  0  0  0  0  0  0  0  0  0  0
  -27.6026   -2.4646   -8.7838 C   0  0  0  0  0  0  0  0  0  0  0  0
  -27.6727   -1.3937   -7.8748 C   0  0  0  0  0  0  0  0  0  0  0  0
  -17.4437    1.0054  -15.1196 C   0  0  0  0  0  0  0  0  0  0  0  0
  -16.8659    1.5174  -16.0734 O   0  0  0  0  0  0  0  0  0  0  0  0
  -16.8683   -0.0313  -14.3635 N   0  0  0  0  0  0  0  0  0  0  0  0
  -15.3385   -0.2215  -14.3114 S   0  0  0  0  0  0  0  0  0  0  0  0
  -14.4889   -0.2280  -15.4928 O   0  0  0  0  0  0  0  0  0  0  0  0
  -14.6345    0.9696  -13.1684 C   0  0  0  0  0  0  0  0  0  0  0  0
  -13.1147    1.0729  -13.3164 C   0  0  0  0  0  0  0  0  0  0  0  0
  -12.5771    2.4195  -12.8583 C   0  0  0  0  0  0  0  0  0  0  0  0
  -12.6044    2.5123  -11.4438 O   0  0  0  0  0  0  0  0  0  0  0  0
  -13.5141    2.3299  -11.1472 H   0  0  0  0  0  0  0  0  0  0  0  0
  -15.0673   -1.7862  -13.4763 C   0  0  0  0  0  0  0  0  0  0  0  0
  -15.5663   -1.7893  -12.0355 C   0  0  0  0  0  0  0  0  0  0  0  0
  -15.8270   -3.1850  -11.4801 C   0  0  0  0  0  0  0  0  0  0  0  0
  -16.1887   -3.0875  -10.1091 O   0  0  0  0  0  0  0  0  0  0  0  0
  -15.4148   -2.7613   -9.6219 H   0  0  0  0  0  0  0  0  0  0  0  0
 22 23  1  0  0  0
 23 24  1  0  0  0
 23 28  2  0  0  0
 24 25  2  0  0  0
 25 26  1  0  0  0
 26 27  2  0  0  0
 27 18  1  0  0  0
 27 28  1  0  0  0
 18 19  1  0  0  0
 18 21  1  0  0  0
 19 20  2  0  0  0
 19 12  1  0  0  0
 12 13  1  0  0  0
 12 17  2  0  0  0
 13 14  2  0  0  0
 14 15  1  0  0  0
 15 16  2  0  0  0
 16 10  1  0  0  0
 16 17  1  0  0  0
 10 11  3  0  0  0
 11  1  1  0  0  0
  1  2  1  0  0  0
  1  6  2  0  0  0
  2  3  2  0  0  0
  3 29  1  0  0  0
  3  4  1  0  0  0
 29 30  2  0  0  0
 29 31  1  0  0  0
 31 32  2  0  0  0
 32 33  2  0  0  0
 32 34  1  0  0  0
 32 39  1  0  0  0
 34 35  1  0  0  0
 35 36  1  0  0  0
 36 37  1  0  0  0
 37 38  1  0  0  0
 39 40  1  0  0  0
 40 41  1  0  0  0
 41 42  1  0  0  0
 42 43  1  0  0  0
  4  5  2  0  0  0
  5  6  1  0  0  0
  6  7  1  0  0  0
  7  8  1  0  0  0
  7  9  1  0  0  0
M  END
> <minimizedAffinity>
-10.88152

$$$$
