CHEMBL3671502


 32 34  0  0  0  0  0  0  0  0999 V2000
  -26.4657   -9.2395   -4.5274 C   0  0  0  0  0  0  0  0  0  0  0  0
  -27.4087   -8.3089   -4.0926 C   0  0  0  0  0  0  0  0  0  0  0  0
  -28.5583   -8.0523   -4.8662 C   0  0  0  0  0  0  0  0  0  0  0  0
  -29.4636   -7.0129   -4.6127 C   0  0  0  0  0  0  0  0  0  0  0  0
  -30.5297   -6.7969   -5.4086 N   0  0  0  0  0  0  0  0  0  0  0  0
  -30.6757   -7.5972   -6.4665 C   0  0  0  0  0  0  0  0  0  0  0  0
  -29.8515   -8.5841   -6.8219 N   0  0  0  0  0  0  0  0  0  0  0  0
  -28.7984   -8.7991   -6.0309 C   0  0  0  0  0  0  0  0  0  0  0  0
  -27.8790   -9.7723   -6.3993 C   0  0  0  0  0  0  0  0  0  0  0  0
  -26.7202  -10.0206   -5.6593 C   0  0  0  0  0  0  0  0  0  0  0  0
  -24.7198  -10.2712   -3.1824 C   0  0  0  0  0  0  0  0  0  0  0  0
  -23.5220  -10.4209   -2.9825 O   0  0  0  0  0  0  0  0  0  0  0  0
  -25.1914   -9.2132   -3.9284 N   0  0  0  0  0  0  0  0  0  0  0  0
  -24.4291   -8.8471   -4.4906 H   0  0  0  0  0  0  0  0  0  0  0  0
  -25.2909  -12.2358   -1.9002 C   0  0  0  0  0  0  0  0  0  0  0  0
  -25.7231  -11.2484   -2.6939 C   0  0  0  0  0  0  0  0  0  0  0  0
  -29.2197   -6.1018   -3.5521 N   0  0  0  0  0  0  0  0  0  0  0  0
  -29.8354   -6.2865   -2.7642 H   0  0  0  0  0  0  0  0  0  0  0  0
  -29.0217   -4.7153   -3.7565 C   0  0  0  0  0  0  0  0  0  0  0  0
  -27.7861   -4.2256   -4.2097 C   0  0  0  0  0  0  0  0  0  0  0  0
  -27.6302   -2.8830   -4.5512 C   0  0  0  0  0  0  0  0  0  0  0  0
  -28.7103   -2.0158   -4.4167 C   0  0  0  0  0  0  0  0  0  0  0  0
  -28.5360   -0.2232   -4.9959 Br  0  0  0  0  0  0  0  0  0  0  0  0
  -29.9224   -2.4580   -3.8887 C   0  0  0  0  0  0  0  0  0  0  0  0
  -30.0624   -3.8015   -3.5536 C   0  0  0  0  0  0  0  0  0  0  0  0
  -31.2369   -4.2368   -3.0701 F   0  0  0  0  0  0  0  0  0  0  0  0
  -25.9081  -11.0015   -6.1720 O   0  0  0  0  0  0  0  0  0  0  0  0
  -24.9799  -10.5575   -7.1678 C   0  0  0  0  0  0  0  0  0  0  0  0
  -23.5500  -10.6200   -6.6259 C   0  0  0  0  0  0  0  0  0  0  0  0
  -23.1363   -9.3150   -6.1076 N   0  0  0  0  0  0  0  0  0  0  0  0
  -23.1816   -8.6179   -6.8508 H   0  0  0  0  0  0  0  0  0  0  0  0
  -22.1606   -9.3583   -5.8144 H   0  0  0  0  0  0  0  0  0  0  0  0
 15 16  2  0  0  0
 16 11  1  0  0  0
 11 12  2  0  0  0
 11 13  1  0  0  0
 13  1  1  0  0  0
 13 14  1  0  0  0
  1  2  1  0  0  0
  1 10  2  0  0  0
  2  3  2  0  0  0
  3  4  1  0  0  0
  3  8  1  0  0  0
  4 17  1  0  0  0
  4  5  2  0  0  0
 17 19  1  0  0  0
 17 18  1  0  0  0
 19 20  1  0  0  0
 19 25  2  0  0  0
 20 21  2  0  0  0
 21 22  1  0  0  0
 22 23  1  0  0  0
 22 24  2  0  0  0
 24 25  1  0  0  0
 25 26  1  0  0  0
  5  6  1  0  0  0
  6  7  2  0  0  0
  7  8  1  0  0  0
  8  9  2  0  0  0
  9 10  1  0  0  0
 10 27  1  0  0  0
 27 28  1  0  0  0
 28 29  1  0  0  0
 29 30  1  0  0  0
 30 31  1  0  0  0
 30 32  1  0  0  0
M  END
> <minimizedAffinity>
-7.52294

$$$$
