CHEMBL3961005


 34 38  0  0  0  0  0  0  0  0999 V2000
  -29.1396   -6.3212   -5.3977 C   0  0  0  0  0  0  0  0  0  0  0  0
  -28.4451   -7.5282   -5.2987 C   0  0  0  0  0  0  0  0  0  0  0  0
  -28.3423   -8.4114   -6.3866 C   0  0  0  0  0  0  0  0  0  0  0  0
  -27.6783   -9.6476   -6.3132 C   0  0  0  0  0  0  0  0  0  0  0  0
  -27.4941  -10.4169   -7.3956 N   0  0  0  0  0  0  0  0  0  0  0  0
  -28.0397   -9.9701   -8.5342 C   0  0  0  0  0  0  0  0  0  0  0  0
  -28.7489   -8.8405   -8.6944 N   0  0  0  0  0  0  0  0  0  0  0  0
  -28.8948   -8.0604   -7.6167 C   0  0  0  0  0  0  0  0  0  0  0  0
  -29.6163   -6.8671   -7.7016 C   0  0  0  0  0  0  0  0  0  0  0  0
  -29.7639   -5.9916   -6.6151 C   0  0  0  0  0  0  0  0  0  0  0  0
  -28.0212   -4.8821   -3.8683 C   0  0  0  0  0  0  0  0  0  0  0  0
  -29.2477   -5.4528   -4.3365 O   0  0  0  0  0  0  0  0  0  0  0  0
  -27.2515  -10.1060   -5.0442 N   0  0  0  0  0  0  0  0  0  0  0  0
  -28.0088  -10.5689   -4.5481 H   0  0  0  0  0  0  0  0  0  0  0  0
  -25.9800  -10.5445   -4.6297 C   0  0  0  0  0  0  0  0  0  0  0  0
  -24.8189  -10.1941   -5.3203 C   0  0  0  0  0  0  0  0  0  0  0  0
  -23.5610  -10.4859   -4.7867 C   0  0  0  0  0  0  0  0  0  0  0  0
  -23.4392  -11.1595   -3.5759 C   0  0  0  0  0  0  0  0  0  0  0  0
  -21.6899  -11.4091   -2.8804 Br  0  0  0  0  0  0  0  0  0  0  0  0
  -24.5869  -11.5806   -2.8936 C   0  0  0  0  0  0  0  0  0  0  0  0
  -24.5196  -12.4660   -1.4115 Cl  0  0  0  0  0  0  0  0  0  0  0  0
  -25.8398  -11.2578   -3.4255 C   0  0  0  0  0  0  0  0  0  0  0  0
  -26.9609  -11.6069   -2.7652 F   0  0  0  0  0  0  0  0  0  0  0  0
  -30.5464   -4.8642   -6.6471 O   0  0  0  0  0  0  0  0  0  0  0  0
  -29.9890   -3.5741   -6.9497 C   0  0  0  0  0  0  0  0  0  0  0  0
  -28.5053   -3.5999   -7.3102 C   0  0  0  0  0  0  0  0  0  0  0  0
  -27.9347   -2.3780   -6.6406 C   0  0  0  0  0  0  0  0  0  0  0  0
  -27.6028   -1.3310   -7.5660 O   0  0  0  0  0  0  0  0  0  0  0  0
  -27.8612   -0.1081   -6.8553 C   0  0  0  0  0  0  0  0  0  0  0  0
  -29.1648   -0.3659   -6.1154 C   0  0  0  0  0  0  0  0  0  0  0  0
  -29.0182   -1.8382   -5.7263 C   0  0  0  0  0  0  0  0  0  0  0  0
  -30.2293   -2.5669   -5.9597 O   0  0  0  0  0  0  0  0  0  0  0  0
  -29.2808    0.5086   -4.9929 O   0  0  0  0  0  0  0  0  0  0  0  0
  -28.0361    1.1037   -4.6399 C   0  0  0  0  0  0  0  0  0  0  0  0
 11 12  1  0  0  0
 12  1  1  0  0  0
  1  2  1  0  0  0
  1 10  2  0  0  0
  2  3  2  0  0  0
  3  4  1  0  0  0
  3  8  1  0  0  0
  4 13  1  0  0  0
  4  5  2  0  0  0
 13 15  1  0  0  0
 13 14  1  0  0  0
 15 16  1  0  0  0
 15 22  2  0  0  0
 16 17  2  0  0  0
 17 18  1  0  0  0
 18 19  1  0  0  0
 18 20  2  0  0  0
 20 21  1  0  0  0
 20 22  1  0  0  0
 22 23  1  0  0  0
  5  6  1  0  0  0
  6  7  2  0  0  0
  7  8  1  0  0  0
  8  9  2  0  0  0
  9 10  1  0  0  0
 10 24  1  0  0  0
 24 25  1  0  0  0
 25 26  1  0  0  0
 25 32  1  0  0  0
 26 27  1  0  0  0
 27 28  1  0  0  0
 27 31  1  0  0  0
 28 29  1  0  0  0
 29 30  1  0  0  0
 30 33  1  0  0  0
 30 31  1  0  0  0
 33 34  1  0  0  0
 31 32  1  0  0  0
M  END
> <minimizedAffinity>
-8.15931

$$$$
