CHEMBL3903593


 28 31  0  0  0  0  0  0  0  0999 V2000
  -24.2749   -0.6907  -14.0341 C   0  0  0  0  0  0  0  0  0  0  0  0
  -25.1259   -1.0512  -15.0843 C   0  0  0  0  0  0  0  0  0  0  0  0
  -26.3755   -1.6217  -14.8355 C   0  0  0  0  0  0  0  0  0  0  0  0
  -26.7954   -1.8412  -13.5252 C   0  0  0  0  0  0  0  0  0  0  0  0
  -25.9562   -1.5115  -12.4558 C   0  0  0  0  0  0  0  0  0  0  0  0
  -24.6891   -0.9577  -12.7151 C   0  0  0  0  0  0  0  0  0  0  0  0
  -22.7667    1.2988  -14.0369 C   0  0  0  0  0  0  0  0  0  0  0  0
  -23.5744    2.1230  -13.6149 O   0  0  0  0  0  0  0  0  0  0  0  0
  -23.0210   -0.0517  -14.2514 N   0  0  0  0  0  0  0  0  0  0  0  0
  -22.2265   -0.6589  -14.4069 H   0  0  0  0  0  0  0  0  0  0  0  0
  -18.0484    0.1557  -15.2066 C   0  0  0  0  0  0  0  0  0  0  0  0
  -19.0604    1.1935  -14.8147 C   0  0  0  0  0  0  0  0  0  0  0  0
  -18.6907    2.5264  -14.6203 C   0  0  0  0  0  0  0  0  0  0  0  0
  -19.6460    3.4781  -14.2466 C   0  0  0  0  0  0  0  0  0  0  0  0
  -20.9853    3.1126  -14.0671 C   0  0  0  0  0  0  0  0  0  0  0  0
  -21.3718    1.7854  -14.2676 C   0  0  0  0  0  0  0  0  0  0  0  0
  -20.4024    0.8324  -14.6314 C   0  0  0  0  0  0  0  0  0  0  0  0
  -26.4273   -1.7017  -11.1061 C   0  0  0  0  0  0  0  0  0  0  0  0
  -26.8986   -1.8727  -10.0067 C   0  0  0  0  0  0  0  0  0  0  0  0
  -27.5501   -2.0894   -8.7329 C   0  0  0  0  0  0  0  0  0  0  0  0
  -28.3776   -3.2974   -8.4860 C   0  0  0  0  0  0  0  0  0  0  0  0
  -28.9460   -3.4175   -7.2782 C   0  0  0  0  0  0  0  0  0  0  0  0
  -28.7328   -2.4051   -6.3155 C   0  0  0  0  0  0  0  0  0  0  0  0
  -29.1675   -2.2833   -5.0778 N   0  0  0  0  0  0  0  0  0  0  0  0
  -28.6408   -1.0984   -4.6301 C   0  0  0  0  0  0  0  0  0  0  0  0
  -27.8804   -0.4965   -5.6056 C   0  0  0  0  0  0  0  0  0  0  0  0
  -27.9356   -1.3339   -6.6888 N   0  0  0  0  0  0  0  0  0  0  0  0
  -27.3163   -1.1282   -7.8942 N   0  0  0  0  0  0  0  0  0  0  0  0
 11 12  1  0  0  0
 12 13  1  0  0  0
 12 17  2  0  0  0
 13 14  2  0  0  0
 14 15  1  0  0  0
 15 16  2  0  0  0
 16  7  1  0  0  0
 16 17  1  0  0  0
  7  8  2  0  0  0
  7  9  1  0  0  0
  9  1  1  0  0  0
  9 10  1  0  0  0
  1  2  1  0  0  0
  1  6  2  0  0  0
  2  3  2  0  0  0
  3  4  1  0  0  0
  4  5  2  0  0  0
  5 18  1  0  0  0
  5  6  1  0  0  0
 18 19  3  0  0  0
 19 20  1  0  0  0
 20 21  1  0  0  0
 20 28  2  0  0  0
 21 22  2  0  0  0
 22 23  1  0  0  0
 23 24  2  0  0  0
 23 27  1  0  0  0
 24 25  1  0  0  0
 25 26  2  0  0  0
 26 27  1  0  0  0
 27 28  1  0  0  0
M  END
> <minimizedAffinity>
-11.15024

$$$$
