CHEMBL4435233


 44 47  0  0  0  0  0  0  0  0999 V2000
  -30.7392   -7.6405   -6.6022 C   0  0  0  0  0  0  0  0  0  0  0  0
  -29.8325   -8.6068   -7.0476 C   0  0  0  0  0  0  0  0  0  0  0  0
  -28.6263   -8.8687   -6.3610 C   0  0  0  0  0  0  0  0  0  0  0  0
  -27.7388   -9.9039   -6.6952 C   0  0  0  0  0  0  0  0  0  0  0  0
  -26.6498  -10.1764   -5.9586 N   0  0  0  0  0  0  0  0  0  0  0  0
  -26.4287   -9.3785   -4.9082 C   0  0  0  0  0  0  0  0  0  0  0  0
  -27.1897   -8.3482   -4.5209 N   0  0  0  0  0  0  0  0  0  0  0  0
  -28.2906   -8.1114   -5.2391 C   0  0  0  0  0  0  0  0  0  0  0  0
  -29.1511   -7.0902   -4.8624 C   0  0  0  0  0  0  0  0  0  0  0  0
  -30.3749   -6.8402   -5.5121 C   0  0  0  0  0  0  0  0  0  0  0  0
  -28.0089  -10.6858   -7.8400 N   0  0  0  0  0  0  0  0  0  0  0  0
  -28.6920  -11.4120   -7.6426 H   0  0  0  0  0  0  0  0  0  0  0  0
  -27.9977  -10.2941   -9.1925 C   0  0  0  0  0  0  0  0  0  0  0  0
  -26.8736   -9.7074   -9.7866 C   0  0  0  0  0  0  0  0  0  0  0  0
  -26.8282   -9.4925  -11.1675 C   0  0  0  0  0  0  0  0  0  0  0  0
  -27.9146   -9.8550  -11.9629 C   0  0  0  0  0  0  0  0  0  0  0  0
  -27.8161   -9.6363  -13.8373 Br  0  0  0  0  0  0  0  0  0  0  0  0
  -29.0568  -10.4062  -11.3921 C   0  0  0  0  0  0  0  0  0  0  0  0
  -29.0816  -10.6283  -10.0192 C   0  0  0  0  0  0  0  0  0  0  0  0
  -30.1678  -11.2000   -9.4735 F   0  0  0  0  0  0  0  0  0  0  0  0
  -32.8311   -8.5727   -7.2554 C   0  0  0  0  0  0  0  0  0  0  0  0
  -31.9390   -7.4570   -7.2326 O   0  0  0  0  0  0  0  0  0  0  0  0
  -31.0314   -5.7763   -4.9543 O   0  0  0  0  0  0  0  0  0  0  0  0
  -30.8759   -5.4612   -3.5764 C   0  0  0  0  0  0  0  0  0  0  0  0
  -31.4289   -4.0732   -3.2542 C   0  0  0  0  0  0  0  0  0  0  0  0
  -30.4080   -3.0916   -3.0800 O   0  0  0  0  0  0  0  0  0  0  0  0
  -29.0705   -3.5438   -3.3181 C   0  0  0  0  0  0  0  0  0  0  0  0
  -28.2841   -2.6882   -4.3129 C   0  0  0  0  0  0  0  0  0  0  0  0
  -29.1981   -1.9907   -5.1514 O   0  0  0  0  0  0  0  0  0  0  0  0
  -29.2159   -2.5195   -6.4700 C   0  0  0  0  0  0  0  0  0  0  0  0
  -27.9090   -2.0943   -7.1236 C   0  0  0  0  0  0  0  0  0  0  0  0
  -28.0934   -1.4171   -8.3881 N   0  0  0  0  0  0  0  0  0  0  0  0
  -27.4915   -1.8864   -9.5415 C   0  0  0  0  0  0  0  0  0  0  0  0
  -26.8028   -2.9028   -9.5747 O   0  0  0  0  0  0  0  0  0  0  0  0
  -28.5466   -0.5145   -8.3777 H   0  0  0  0  0  0  0  0  0  0  0  0
  -27.7782   -1.0642  -10.7687 C   0  0  0  0  0  0  0  0  0  0  0  0
  -26.7460   -1.2546  -11.7620 N   0  0  0  0  0  0  0  0  0  0  0  0
  -26.8748   -1.8119  -12.9987 C   0  0  0  0  0  0  0  0  0  0  0  0
  -25.7426   -1.6972  -13.6578 N   0  0  0  0  0  0  0  0  0  0  0  0
  -24.9317   -1.0576  -12.7491 C   0  0  0  0  0  0  0  0  0  0  0  0
  -25.5063   -0.7564  -11.5699 N   0  0  0  0  0  0  0  0  0  0  0  0
  -23.5559   -0.6790  -13.0411 N   0  0  0  0  0  0  0  0  0  0  0  0
  -22.7159   -0.8582  -12.1458 O   0  0  0  0  0  0  0  0  0  0  0  0
  -23.3100   -0.2028  -14.1615 O   0  0  0  0  0  0  0  0  0  0  0  0
 21 22  1  0  0  0
 22  1  1  0  0  0
  1  2  1  0  0  0
  1 10  2  0  0  0
  2  3  2  0  0  0
  3  4  1  0  0  0
  3  8  1  0  0  0
  4 11  1  0  0  0
  4  5  2  0  0  0
 11 13  1  0  0  0
 11 12  1  0  0  0
 13 14  1  0  0  0
 13 19  2  0  0  0
 14 15  2  0  0  0
 15 16  1  0  0  0
 16 17  1  0  0  0
 16 18  2  0  0  0
 18 19  1  0  0  0
 19 20  1  0  0  0
  5  6  1  0  0  0
  6  7  2  0  0  0
  7  8  1  0  0  0
  8  9  2  0  0  0
  9 10  1  0  0  0
 10 23  1  0  0  0
 23 24  1  0  0  0
 24 25  1  0  0  0
 25 26  1  0  0  0
 26 27  1  0  0  0
 27 28  1  0  0  0
 28 29  1  0  0  0
 29 30  1  0  0  0
 30 31  1  0  0  0
 31 32  1  0  0  0
 32 33  1  0  0  0
 32 35  1  0  0  0
 33 34  2  0  0  0
 33 36  1  0  0  0
 36 37  1  0  0  0
 37 38  1  0  0  0
 37 41  1  0  0  0
 38 39  2  0  0  0
 39 40  1  0  0  0
 40 42  1  0  0  0
 40 41  2  0  0  0
 42 43  2  0  0  0
 42 44  1  0  0  0
M  CHG 1  42   1
M  CHG 1  44  -1
M  END
> <minimizedAffinity>
-7.84247

$$$$
