CHEMBL45389


 26 29  0  0  0  0  0  0  0  0999 V2000
  -28.6648   -6.4288   -7.0036 C   0  0  0  0  0  0  0  0  0  0  0  0
  -28.3277   -5.6730   -8.0533 N   0  0  0  0  0  0  0  0  0  0  0  0
  -28.7610   -4.3935   -8.0428 C   0  0  0  0  0  0  0  0  0  0  0  0
  -29.5117   -3.8376   -7.0304 C   0  0  0  0  0  0  0  0  0  0  0  0
  -29.7468   -4.6710   -5.9633 C   0  0  0  0  0  0  0  0  0  0  0  0
  -29.3393   -5.9494   -5.9544 N   0  0  0  0  0  0  0  0  0  0  0  0
  -30.4209   -4.2061   -4.8034 N   0  0  0  0  0  0  0  0  0  0  0  0
  -31.4031   -4.8935   -4.1181 C   0  0  0  0  0  0  0  0  0  0  0  0
  -31.5983   -4.1965   -2.9533 C   0  0  0  0  0  0  0  0  0  0  0  0
  -30.8501   -3.0549   -2.9411 N   0  0  0  0  0  0  0  0  0  0  0  0
  -30.1826   -3.0247   -4.0890 C   0  0  0  0  0  0  0  0  0  0  0  0
  -29.3775   -1.8653   -4.5360 C   0  0  0  0  0  0  0  0  0  0  0  0
  -30.0155   -0.7570   -5.1115 C   0  0  0  0  0  0  0  0  0  0  0  0
  -29.2838    0.3669   -5.5146 C   0  0  0  0  0  0  0  0  0  0  0  0
  -27.9019    0.4035   -5.3409 C   0  0  0  0  0  0  0  0  0  0  0  0
  -27.2464   -0.7007   -4.8108 C   0  0  0  0  0  0  0  0  0  0  0  0
  -27.9758   -1.8359   -4.4494 C   0  0  0  0  0  0  0  0  0  0  0  0
  -28.2902   -7.7734   -6.9983 N   0  0  0  0  0  0  0  0  0  0  0  0
  -27.2825   -7.8476   -6.9827 H   0  0  0  0  0  0  0  0  0  0  0  0
  -28.9967  -10.3260  -11.3924 Cl  0  0  0  0  0  0  0  0  0  0  0  0
  -29.3317  -10.0661   -9.7230 C   0  0  0  0  0  0  0  0  0  0  0  0
  -30.2123  -10.9221   -9.0612 C   0  0  0  0  0  0  0  0  0  0  0  0
  -30.4803  -10.7172   -7.7138 C   0  0  0  0  0  0  0  0  0  0  0  0
  -29.8551   -9.6700   -7.0323 C   0  0  0  0  0  0  0  0  0  0  0  0
  -28.9515   -8.8145   -7.6835 C   0  0  0  0  0  0  0  0  0  0  0  0
  -28.7127   -9.0095   -9.0469 C   0  0  0  0  0  0  0  0  0  0  0  0
 20 21  1  0  0  0
 21 22  1  0  0  0
 21 26  2  0  0  0
 22 23  2  0  0  0
 23 24  1  0  0  0
 24 25  2  0  0  0
 25 18  1  0  0  0
 25 26  1  0  0  0
 18  1  1  0  0  0
 18 19  1  0  0  0
  1  2  1  0  0  0
  1  6  2  0  0  0
  2  3  2  0  0  0
  3  4  1  0  0  0
  4  5  2  0  0  0
  5  7  1  0  0  0
  5  6  1  0  0  0
  7  8  1  0  0  0
  7 11  1  0  0  0
  8  9  2  0  0  0
  9 10  1  0  0  0
 10 11  2  0  0  0
 11 12  1  0  0  0
 12 13  1  0  0  0
 12 17  2  0  0  0
 13 14  2  0  0  0
 14 15  1  0  0  0
 15 16  2  0  0  0
 16 17  1  0  0  0
M  END
> <minimizedAffinity>
-8.59294

$$$$
