CHEMBL221926


 29 32  0  0  0  0  0  0  0  0999 V2000
  -27.6011   -1.4626   -9.5527 C   0  0  0  0  0  0  0  0  0  0  0  0
  -28.5069   -1.4137  -10.6102 C   0  0  0  0  0  0  0  0  0  0  0  0
  -28.0336   -1.6127  -11.8985 C   0  0  0  0  0  0  0  0  0  0  0  0
  -26.7327   -1.8065  -12.2093 N   0  0  0  0  0  0  0  0  0  0  0  0
  -25.8456   -1.7910  -11.1929 C   0  0  0  0  0  0  0  0  0  0  0  0
  -26.2598   -1.6671   -9.8659 C   0  0  0  0  0  0  0  0  0  0  0  0
  -24.4964   -1.8971  -11.5408 N   0  0  0  0  0  0  0  0  0  0  0  0
  -24.1572   -2.8331  -11.3557 H   0  0  0  0  0  0  0  0  0  0  0  0
  -23.9054   -1.1758  -12.5172 C   0  0  0  0  0  0  0  0  0  0  0  0
  -24.2569   -1.1723  -13.7861 N   0  0  0  0  0  0  0  0  0  0  0  0
  -23.4396   -0.3629  -14.5250 C   0  0  0  0  0  0  0  0  0  0  0  0
  -22.4343    0.2706  -13.8251 C   0  0  0  0  0  0  0  0  0  0  0  0
  -22.5498   -0.1715  -12.1686 S   0  0  0  0  0  0  0  0  0  0  0  0
  -21.4195    1.1941  -14.3303 C   0  0  0  0  0  0  0  0  0  0  0  0
  -20.2388    0.6851  -14.8950 C   0  0  0  0  0  0  0  0  0  0  0  0
  -19.2373    1.5388  -15.3571 C   0  0  0  0  0  0  0  0  0  0  0  0
  -19.4084    2.9190  -15.2583 C   0  0  0  0  0  0  0  0  0  0  0  0
  -20.5716    3.4405  -14.6960 C   0  0  0  0  0  0  0  0  0  0  0  0
  -21.5707    2.5850  -14.2310 C   0  0  0  0  0  0  0  0  0  0  0  0
  -28.0083   -1.2900   -8.1065 C   0  0  0  0  0  0  0  0  0  0  0  0
  -31.0415   -4.5013   -4.2846 C   0  0  0  0  0  0  0  0  0  0  0  0
  -30.2700   -3.2174   -4.1040 C   0  0  0  0  0  0  0  0  0  0  0  0
  -30.1783   -2.6998   -2.9925 O   0  0  0  0  0  0  0  0  0  0  0  0
  -29.6553   -2.6984   -5.2248 N   0  0  0  0  0  0  0  0  0  0  0  0
  -29.7761   -3.2432   -6.5778 C   0  0  0  0  0  0  0  0  0  0  0  0
  -28.3836   -3.5381   -7.1530 C   0  0  0  0  0  0  0  0  0  0  0  0
  -27.5134   -2.3428   -7.1972 N   0  0  0  0  0  0  0  0  0  0  0  0
  -27.3982   -1.8164   -5.8088 C   0  0  0  0  0  0  0  0  0  0  0  0
  -28.7501   -1.5479   -5.1010 C   0  0  0  0  0  0  0  0  0  0  0  0
 21 22  1  0  0  0
 22 23  2  0  0  0
 22 24  1  0  0  0
 24 25  1  0  0  0
 24 29  1  0  0  0
 25 26  1  0  0  0
 26 27  1  0  0  0
 27 20  1  0  0  0
 27 28  1  0  0  0
 20  1  1  0  0  0
  1  2  1  0  0  0
  1  6  2  0  0  0
  2  3  2  0  0  0
  3  4  1  0  0  0
  4  5  2  0  0  0
  5  7  1  0  0  0
  5  6  1  0  0  0
  7  9  1  0  0  0
  7  8  1  0  0  0
  9 10  2  0  0  0
  9 13  1  0  0  0
 10 11  1  0  0  0
 11 12  2  0  0  0
 12 14  1  0  0  0
 12 13  1  0  0  0
 14 15  1  0  0  0
 14 19  2  0  0  0
 15 16  2  0  0  0
 16 17  1  0  0  0
 17 18  2  0  0  0
 18 19  1  0  0  0
 28 29  1  0  0  0
M  END
> <minimizedAffinity>
-9.43470

$$$$
