CHEMBL223998


 36 41  0  0  0  0  0  0  0  0999 V2000
  -26.4887   11.2389  -15.1084 C   0  0  0  0  0  0  0  0  0  0  0  0
  -27.1737   10.7922  -16.2706 C   0  0  0  0  0  0  0  0  0  0  0  0
  -28.5649   10.6816  -16.3200 C   0  0  0  0  0  0  0  0  0  0  0  0
  -29.2479   10.9793  -15.1688 C   0  0  0  0  0  0  0  0  0  0  0  0
  -28.5920   11.3825  -13.9707 C   0  0  0  0  0  0  0  0  0  0  0  0
  -27.2167   11.5332  -13.9427 C   0  0  0  0  0  0  0  0  0  0  0  0
  -29.5673   11.5842  -12.7976 C   0  0  0  0  0  0  0  0  0  0  0  0
  -30.8278   11.2903  -13.5380 C   0  0  0  0  0  0  0  0  0  0  0  0
  -32.2116   11.2109  -13.3587 C   0  0  0  0  0  0  0  0  0  0  0  0
  -32.8344   10.8760  -14.5089 N   0  0  0  0  0  0  0  0  0  0  0  0
  -31.8269   10.7374  -15.4112 N   0  0  0  0  0  0  0  0  0  0  0  0
  -30.6278   10.9601  -14.8471 C   0  0  0  0  0  0  0  0  0  0  0  0
  -32.0570   10.4949  -16.3692 H   0  0  0  0  0  0  0  0  0  0  0  0
  -32.9101   11.4379  -12.0910 C   0  0  0  0  0  0  0  0  0  0  0  0
  -34.2769   11.4803  -11.9162 C   0  0  0  0  0  0  0  0  0  0  0  0
  -34.7207   11.7945  -10.2985 S   0  0  0  0  0  0  0  0  0  0  0  0
  -33.0878   11.8745   -9.8157 C   0  0  0  0  0  0  0  0  0  0  0  0
  -32.2178   11.6602  -10.8612 C   0  0  0  0  0  0  0  0  0  0  0  0
  -32.7080   12.1379   -8.4750 C   0  0  0  0  0  0  0  0  0  0  0  0
  -32.4185   12.3780   -7.2266 C   0  0  0  0  0  0  0  0  0  0  0  0
  -32.0809   12.6579   -5.7713 C   0  0  0  0  0  0  0  0  0  0  0  0
  -33.2333   12.2251   -4.8660 C   0  0  0  0  0  0  0  0  0  0  0  0
  -32.8836   12.4187   -3.4126 C   0  0  0  0  0  0  0  0  0  0  0  0
  -31.5449   12.5249   -3.0132 C   0  0  0  0  0  0  0  0  0  0  0  0
  -31.2195   12.6430   -1.6616 C   0  0  0  0  0  0  0  0  0  0  0  0
  -32.2276   12.6546   -0.6992 C   0  0  0  0  0  0  0  0  0  0  0  0
  -33.5626   12.5565   -1.0873 C   0  0  0  0  0  0  0  0  0  0  0  0
  -33.8904   12.4382   -2.4382 C   0  0  0  0  0  0  0  0  0  0  0  0
  -24.9761   11.3861  -15.1335 C   0  0  0  0  0  0  0  0  0  0  0  0
  -22.1242   10.3988  -18.8642 C   0  0  0  0  0  0  0  0  0  0  0  0
  -22.7416   11.4892  -18.1157 N   0  0  0  0  0  0  0  0  0  0  0  0
  -24.2094   11.3888  -18.1507 C   0  0  0  0  0  0  0  0  0  0  0  0
  -24.8646   12.5234  -17.3320 C   0  0  0  0  0  0  0  0  0  0  0  0
  -24.4773   12.5409  -15.9039 N   0  0  0  0  0  0  0  0  0  0  0  0
  -22.9938   12.5954  -15.8577 C   0  0  0  0  0  0  0  0  0  0  0  0
  -22.2644   11.5267  -16.7200 C   0  0  0  0  0  0  0  0  0  0  0  0
 30 31  1  0  0  0
 31 32  1  0  0  0
 31 36  1  0  0  0
 32 33  1  0  0  0
 33 34  1  0  0  0
 34 29  1  0  0  0
 34 35  1  0  0  0
 29  1  1  0  0  0
  1  2  1  0  0  0
  1  6  2  0  0  0
  2  3  2  0  0  0
  3  4  1  0  0  0
  4  5  2  0  0  0
  4 12  1  0  0  0
  5  6  1  0  0  0
  5  7  1  0  0  0
  7  8  1  0  0  0
  8  9  1  0  0  0
  8 12  2  0  0  0
  9 14  1  0  0  0
  9 10  2  0  0  0
 14 15  2  0  0  0
 14 18  1  0  0  0
 15 16  1  0  0  0
 16 17  1  0  0  0
 17 19  1  0  0  0
 17 18  2  0  0  0
 19 20  3  0  0  0
 20 21  1  0  0  0
 21 22  1  0  0  0
 22 23  1  0  0  0
 23 24  1  0  0  0
 23 28  2  0  0  0
 24 25  2  0  0  0
 25 26  1  0  0  0
 26 27  2  0  0  0
 27 28  1  0  0  0
 10 11  1  0  0  0
 11 12  1  0  0  0
 11 13  1  0  0  0
 35 36  1  0  0  0
M  END
> <minimizedAffinity>
-4.37108

$$$$
