CHEMBL249518


 33 37  0  0  0  0  0  0  0  0999 V2000
  -27.8218   -9.4758   -6.6213 C   0  0  0  0  0  0  0  0  0  0  0  0
  -28.4068  -10.2545   -7.5492 N   0  0  0  0  0  0  0  0  0  0  0  0
  -29.4809   -9.5243   -7.9253 N   0  0  0  0  0  0  0  0  0  0  0  0
  -29.5810   -8.3186   -7.2953 C   0  0  0  0  0  0  0  0  0  0  0  0
  -30.5314   -7.3900   -7.4976 N   0  0  0  0  0  0  0  0  0  0  0  0
  -30.3279   -6.2699   -6.7507 C   0  0  0  0  0  0  0  0  0  0  0  0
  -29.2882   -6.0338   -5.8374 C   0  0  0  0  0  0  0  0  0  0  0  0
  -28.3642   -7.0803   -5.6608 C   0  0  0  0  0  0  0  0  0  0  0  0
  -28.5068   -8.2500   -6.4279 C   0  0  0  0  0  0  0  0  0  0  0  0
  -30.1102   -9.8894   -8.6291 H   0  0  0  0  0  0  0  0  0  0  0  0
  -23.2868  -11.1068   -5.5351 C   0  0  0  0  0  0  0  0  0  0  0  0
  -22.6154  -11.2899   -4.3072 C   0  0  0  0  0  0  0  0  0  0  0  0
  -23.2244  -10.9963   -3.0826 C   0  0  0  0  0  0  0  0  0  0  0  0
  -24.5297  -10.5013   -3.0233 C   0  0  0  0  0  0  0  0  0  0  0  0
  -25.1848  -10.3258   -4.2425 C   0  0  0  0  0  0  0  0  0  0  0  0
  -26.4350   -9.8626   -4.5588 N   0  0  0  0  0  0  0  0  0  0  0  0
  -26.5773   -9.8997   -5.9210 C   0  0  0  0  0  0  0  0  0  0  0  0
  -25.4851  -10.3518   -6.5018 N   0  0  0  0  0  0  0  0  0  0  0  0
  -24.6082  -10.6204   -5.4745 C   0  0  0  0  0  0  0  0  0  0  0  0
  -27.1535   -9.5482   -3.9226 H   0  0  0  0  0  0  0  0  0  0  0  0
  -22.5923  -11.3827   -6.8373 C   0  0  0  0  0  0  0  0  0  0  0  0
  -20.8257   -9.9065   -7.3036 C   0  0  0  0  0  0  0  0  0  0  0  0
  -21.1915  -11.1402   -6.7014 O   0  0  0  0  0  0  0  0  0  0  0  0
  -29.1316   -4.7378   -5.1477 C   0  0  0  0  0  0  0  0  0  0  0  0
  -28.9888   -4.6257   -3.7633 C   0  0  0  0  0  0  0  0  0  0  0  0
  -28.9072   -3.4581   -3.0786 N   0  0  0  0  0  0  0  0  0  0  0  0
  -28.9601   -2.3203   -3.8059 C   0  0  0  0  0  0  0  0  0  0  0  0
  -29.0825   -2.2922   -5.1882 C   0  0  0  0  0  0  0  0  0  0  0  0
  -29.1667   -3.5236   -5.8515 C   0  0  0  0  0  0  0  0  0  0  0  0
  -29.1742   -0.9952   -5.9521 C   0  0  0  0  0  0  0  0  0  0  0  0
  -29.3726    0.1942   -5.1072 N   0  0  0  0  0  0  0  0  0  0  0  0
  -28.1337    0.9550   -4.9285 C   0  0  0  0  0  0  0  0  0  0  0  0
  -30.3910    1.0589   -5.7145 C   0  0  0  0  0  0  0  0  0  0  0  0
 22 23  1  0  0  0
 23 21  1  0  0  0
 21 11  1  0  0  0
 11 12  1  0  0  0
 11 19  2  0  0  0
 12 13  2  0  0  0
 13 14  1  0  0  0
 14 15  2  0  0  0
 15 16  1  0  0  0
 15 19  1  0  0  0
 16 17  1  0  0  0
 16 20  1  0  0  0
 17  1  1  0  0  0
 17 18  2  0  0  0
  1  2  2  0  0  0
  1  9  1  0  0  0
  2  3  1  0  0  0
  3  4  1  0  0  0
  3 10  1  0  0  0
  4  5  1  0  0  0
  4  9  2  0  0  0
  5  6  2  0  0  0
  6  7  1  0  0  0
  7 24  1  0  0  0
  7  8  2  0  0  0
 24 25  1  0  0  0
 24 29  2  0  0  0
 25 26  2  0  0  0
 26 27  1  0  0  0
 27 28  2  0  0  0
 28 30  1  0  0  0
 28 29  1  0  0  0
 30 31  1  0  0  0
 31 32  1  0  0  0
 31 33  1  0  0  0
  8  9  1  0  0  0
 18 19  1  0  0  0
M  END
> <minimizedAffinity>
-8.35786

$$$$
