CHEMBL212961


 27 31  0  0  0  0  0  0  0  0999 V2000
  -29.5670   -7.2686   -7.3725 C   0  0  0  0  0  0  0  0  0  0  0  0
  -30.8389   -7.6554   -6.9094 C   0  0  0  0  0  0  0  0  0  0  0  0
  -31.4535   -8.7871   -7.4088 C   0  0  0  0  0  0  0  0  0  0  0  0
  -30.8019   -9.5314   -8.3860 C   0  0  0  0  0  0  0  0  0  0  0  0
  -29.5383   -9.1672   -8.9160 C   0  0  0  0  0  0  0  0  0  0  0  0
  -28.9313   -8.0164   -8.3973 C   0  0  0  0  0  0  0  0  0  0  0  0
  -28.9889   -9.9778  -10.0692 C   0  0  0  0  0  0  0  0  0  0  0  0
  -28.0524   -9.3539  -10.9194 N   0  0  0  0  0  0  0  0  0  0  0  0
  -26.7808   -9.5952  -10.4592 N   0  0  0  0  0  0  0  0  0  0  0  0
  -26.9977  -10.7103   -9.7559 C   0  0  0  0  0  0  0  0  0  0  0  0
  -28.3197  -11.2257   -9.9833 C   0  0  0  0  0  0  0  0  0  0  0  0
  -28.5141  -12.4638   -9.1625 C   0  0  0  0  0  0  0  0  0  0  0  0
  -27.6644  -12.0105   -7.9903 C   0  0  0  0  0  0  0  0  0  0  0  0
  -28.0459  -12.1635   -6.6662 C   0  0  0  0  0  0  0  0  0  0  0  0
  -27.4822  -11.3018   -5.7305 C   0  0  0  0  0  0  0  0  0  0  0  0
  -26.4982  -10.3685   -6.1058 C   0  0  0  0  0  0  0  0  0  0  0  0
  -26.0619  -10.2578   -7.4357 C   0  0  0  0  0  0  0  0  0  0  0  0
  -26.6664  -11.0718   -8.3811 C   0  0  0  0  0  0  0  0  0  0  0  0
  -28.2115   -8.4913  -11.4256 H   0  0  0  0  0  0  0  0  0  0  0  0
  -28.9050   -6.0690   -6.7163 C   0  0  0  0  0  0  0  0  0  0  0  0
  -27.2525   -1.8913   -5.1311 C   0  0  0  0  0  0  0  0  0  0  0  0
  -28.3952   -2.7927   -5.0117 N   0  0  0  0  0  0  0  0  0  0  0  0
  -29.0630   -2.9654   -6.3120 C   0  0  0  0  0  0  0  0  0  0  0  0
  -30.2019   -4.0092   -6.2440 C   0  0  0  0  0  0  0  0  0  0  0  0
  -29.7828   -5.3498   -5.7725 N   0  0  0  0  0  0  0  0  0  0  0  0
  -29.1136   -5.1581   -4.4656 C   0  0  0  0  0  0  0  0  0  0  0  0
  -27.9851   -4.0931   -4.4510 C   0  0  0  0  0  0  0  0  0  0  0  0
 21 22  1  0  0  0
 22 23  1  0  0  0
 22 27  1  0  0  0
 23 24  1  0  0  0
 24 25  1  0  0  0
 25 20  1  0  0  0
 25 26  1  0  0  0
 20  1  1  0  0  0
  1  2  1  0  0  0
  1  6  2  0  0  0
  2  3  2  0  0  0
  3  4  1  0  0  0
  4  5  2  0  0  0
  5  7  1  0  0  0
  5  6  1  0  0  0
  7  8  1  0  0  0
  7 11  2  0  0  0
  8  9  1  0  0  0
  8 19  1  0  0  0
  9 10  2  0  0  0
 10 11  1  0  0  0
 10 18  1  0  0  0
 11 12  1  0  0  0
 12 13  1  0  0  0
 13 14  1  0  0  0
 13 18  2  0  0  0
 14 15  2  0  0  0
 15 16  1  0  0  0
 16 17  2  0  0  0
 17 18  1  0  0  0
 26 27  1  0  0  0
M  END
> <minimizedAffinity>
-7.83541

$$$$
