CHEMBL4529255


 31 33  0  0  0  0  0  0  0  0999 V2000
  -29.2925   -3.4665   -7.0076 C   0  0  0  0  0  0  0  0  0  0  0  0
  -29.2709   -2.4142   -6.0858 C   0  0  0  0  0  0  0  0  0  0  0  0
  -28.5436   -1.2548   -6.3443 C   0  0  0  0  0  0  0  0  0  0  0  0
  -27.7748   -1.1539   -7.4958 C   0  0  0  0  0  0  0  0  0  0  0  0
  -27.6638   -2.2296   -8.3787 C   0  0  0  0  0  0  0  0  0  0  0  0
  -28.4608   -3.3747   -8.1461 C   0  0  0  0  0  0  0  0  0  0  0  0
  -28.5956   -5.9950   -5.6646 O   0  0  0  0  0  0  0  0  0  0  0  0
  -29.6970   -5.7967   -6.1616 C   0  0  0  0  0  0  0  0  0  0  0  0
  -30.1039   -4.6190   -6.8003 N   0  0  0  0  0  0  0  0  0  0  0  0
  -31.0897   -4.5203   -7.0177 H   0  0  0  0  0  0  0  0  0  0  0  0
  -30.7524   -6.8996   -6.1475 C   0  0  0  0  0  0  0  0  0  0  0  0
  -30.5921   -7.8750   -7.3265 C   0  0  0  0  0  0  0  0  0  0  0  0
  -29.6244   -9.3156   -6.7560 S   0  0  0  0  0  0  0  0  0  0  0  0
  -29.7253  -10.4479   -8.1176 C   0  0  0  0  0  0  0  0  0  0  0  0
  -31.1245  -11.3457   -8.3691 S   0  0  0  0  0  0  0  0  0  0  0  0
  -28.6539  -10.3743   -9.0157 N   0  0  0  0  0  0  0  0  0  0  0  0
  -27.3714   -9.7129   -8.7154 C   0  0  0  0  0  0  0  0  0  0  0  0
  -26.8848   -8.8789   -9.9044 C   0  0  0  0  0  0  0  0  0  0  0  0
  -26.8032   -9.6729  -11.0978 O   0  0  0  0  0  0  0  0  0  0  0  0
  -28.0836  -10.2371  -11.4183 C   0  0  0  0  0  0  0  0  0  0  0  0
  -28.5939  -11.1367  -10.2815 C   0  0  0  0  0  0  0  0  0  0  0  0
  -26.7526   -2.1926   -9.4667 N   0  0  0  0  0  0  0  0  0  0  0  0
  -27.0104   -1.6146  -10.7115 C   0  0  0  0  0  0  0  0  0  0  0  0
  -28.0481   -1.0657  -11.0647 O   0  0  0  0  0  0  0  0  0  0  0  0
  -25.7900   -2.4818   -9.3150 H   0  0  0  0  0  0  0  0  0  0  0  0
  -25.8562   -1.6194  -11.6697 C   0  0  0  0  0  0  0  0  0  0  0  0
  -26.1096   -1.5954  -13.0427 C   0  0  0  0  0  0  0  0  0  0  0  0
  -25.0294   -1.5491  -13.9184 C   0  0  0  0  0  0  0  0  0  0  0  0
  -23.7424   -1.5270  -13.3971 C   0  0  0  0  0  0  0  0  0  0  0  0
  -23.5831   -1.5604  -12.0172 C   0  0  0  0  0  0  0  0  0  0  0  0
  -24.6057   -1.6067  -11.1316 N   0  0  0  0  0  0  0  0  0  0  0  0
  7  8  2  0  0  0
  8 11  1  0  0  0
  8  9  1  0  0  0
 11 12  1  0  0  0
 12 13  1  0  0  0
 13 14  1  0  0  0
 14 15  2  0  0  0
 14 16  1  0  0  0
 16 17  1  0  0  0
 16 21  1  0  0  0
 17 18  1  0  0  0
 18 19  1  0  0  0
 19 20  1  0  0  0
 20 21  1  0  0  0
  9  1  1  0  0  0
  9 10  1  0  0  0
  1  2  1  0  0  0
  1  6  2  0  0  0
  2  3  2  0  0  0
  3  4  1  0  0  0
  4  5  2  0  0  0
  5 22  1  0  0  0
  5  6  1  0  0  0
 22 23  1  0  0  0
 22 25  1  0  0  0
 23 24  2  0  0  0
 23 26  1  0  0  0
 26 27  1  0  0  0
 26 31  2  0  0  0
 27 28  2  0  0  0
 28 29  1  0  0  0
 29 30  2  0  0  0
 30 31  1  0  0  0
M  END
> <minimizedAffinity>
-8.37609

$$$$
