CHEMBL3975193


 36 40  0  0  0  0  0  0  0  0999 V2000
  -27.9160   -2.6823   -8.3494 N   0  0  0  0  0  0  0  0  0  0  0  0
  -27.3826   -1.9329   -9.4708 C   0  0  0  0  0  0  0  0  0  0  0  0
  -28.2887   -1.7643  -10.5014 C   0  0  0  0  0  0  0  0  0  0  0  0
  -27.8293   -1.6616  -11.8112 C   0  0  0  0  0  0  0  0  0  0  0  0
  -26.5143   -1.5190  -12.0973 C   0  0  0  0  0  0  0  0  0  0  0  0
  -26.2625   -1.6988  -13.4019 N   0  0  0  0  0  0  0  0  0  0  0  0
  -25.0753   -1.3060  -13.8587 C   0  0  0  0  0  0  0  0  0  0  0  0
  -24.1771   -0.6595  -13.0388 C   0  0  0  0  0  0  0  0  0  0  0  0
  -24.3592   -0.6401  -11.6604 N   0  0  0  0  0  0  0  0  0  0  0  0
  -25.5586   -1.1860  -11.1224 C   0  0  0  0  0  0  0  0  0  0  0  0
  -26.0390   -1.5006   -9.7544 C   0  0  0  0  0  0  0  0  0  0  0  0
  -23.1557    0.1281  -13.7534 C   0  0  0  0  0  0  0  0  0  0  0  0
  -21.9139   -0.2809  -14.3255 C   0  0  0  0  0  0  0  0  0  0  0  0
  -21.1235    0.7449  -14.6673 N   0  0  0  0  0  0  0  0  0  0  0  0
  -21.8362    1.8227  -14.3034 N   0  0  0  0  0  0  0  0  0  0  0  0
  -21.4940    3.1371  -14.7992 C   0  0  0  0  0  0  0  0  0  0  0  0
  -22.9536    1.4936  -13.5805 C   0  0  0  0  0  0  0  0  0  0  0  0
  -28.5782   -2.5333   -4.6506 C   0  0  0  0  0  0  0  0  0  0  0  0
  -28.8590   -1.1672   -4.4889 C   0  0  0  0  0  0  0  0  0  0  0  0
  -28.9254   -0.3360   -5.6001 C   0  0  0  0  0  0  0  0  0  0  0  0
  -28.6359   -0.8480   -6.8824 C   0  0  0  0  0  0  0  0  0  0  0  0
  -28.3537   -2.1970   -7.0976 C   0  0  0  0  0  0  0  0  0  0  0  0
  -28.3826   -3.0305   -5.9553 C   0  0  0  0  0  0  0  0  0  0  0  0
  -27.7959   -4.6475   -3.8517 C   0  0  0  0  0  0  0  0  0  0  0  0
  -28.4501   -3.4023   -3.5973 O   0  0  0  0  0  0  0  0  0  0  0  0
  -29.2287    1.0060   -5.5595 O   0  0  0  0  0  0  0  0  0  0  0  0
  -30.5595    1.3691   -5.8967 C   0  0  0  0  0  0  0  0  0  0  0  0
  -27.4501   -4.1603   -8.4563 C   0  0  0  0  0  0  0  0  0  0  0  0
  -28.4124   -5.3012   -8.1686 C   0  0  0  0  0  0  0  0  0  0  0  0
  -29.2378   -6.2798   -7.9218 C   0  0  0  0  0  0  0  0  0  0  0  0
  -30.1273   -7.3647   -7.6795 C   0  0  0  0  0  0  0  0  0  0  0  0
  -31.3121   -7.0593   -7.1271 N   0  0  0  0  0  0  0  0  0  0  0  0
  -32.1611   -8.0928   -6.9839 C   0  0  0  0  0  0  0  0  0  0  0  0
  -31.8635   -9.3812   -7.3680 C   0  0  0  0  0  0  0  0  0  0  0  0
  -30.6098   -9.5711   -7.9046 C   0  0  0  0  0  0  0  0  0  0  0  0
  -29.7164   -8.5802   -8.0733 N   0  0  0  0  0  0  0  0  0  0  0  0
 24 25  1  0  0  0
 25 18  1  0  0  0
 18 19  1  0  0  0
 18 23  2  0  0  0
 19 20  2  0  0  0
 20 26  1  0  0  0
 20 21  1  0  0  0
 26 27  1  0  0  0
 21 22  2  0  0  0
 22  1  1  0  0  0
 22 23  1  0  0  0
  1 28  1  0  0  0
  1  2  1  0  0  0
 28 29  1  0  0  0
 29 30  3  0  0  0
 30 31  1  0  0  0
 31 32  1  0  0  0
 31 36  2  0  0  0
 32 33  2  0  0  0
 33 34  1  0  0  0
 34 35  2  0  0  0
 35 36  1  0  0  0
  2  3  1  0  0  0
  2 11  2  0  0  0
  3  4  2  0  0  0
  4  5  1  0  0  0
  5  6  1  0  0  0
  5 10  2  0  0  0
  6  7  2  0  0  0
  7  8  1  0  0  0
  8 12  1  0  0  0
  8  9  2  0  0  0
 12 13  1  0  0  0
 12 17  2  0  0  0
 13 14  2  0  0  0
 14 15  1  0  0  0
 15 16  1  0  0  0
 15 17  1  0  0  0
  9 10  1  0  0  0
 10 11  1  0  0  0
M  END
> <minimizedAffinity>
-8.81186

$$$$
