CHEMBL3933492


 32 36  0  0  0  0  0  0  0  0999 V2000
  -22.4204    1.0038  -13.9911 C   0  0  0  0  0  0  0  0  0  0  0  0
  -22.6649    2.3851  -14.0337 C   0  0  0  0  0  0  0  0  0  0  0  0
  -21.6889    3.2304  -14.4566 N   0  0  0  0  0  0  0  0  0  0  0  0
  -20.4517    2.7710  -14.7742 C   0  0  0  0  0  0  0  0  0  0  0  0
  -19.4319    3.6592  -15.1105 C   0  0  0  0  0  0  0  0  0  0  0  0
  -18.1297    3.1882  -15.2979 C   0  0  0  0  0  0  0  0  0  0  0  0
  -17.8144    1.8174  -15.1459 C   0  0  0  0  0  0  0  0  0  0  0  0
  -18.8872    0.9172  -14.9044 C   0  0  0  0  0  0  0  0  0  0  0  0
  -20.1889    1.3927  -14.7050 C   0  0  0  0  0  0  0  0  0  0  0  0
  -21.1910    0.5398  -14.3524 N   0  0  0  0  0  0  0  0  0  0  0  0
  -25.6626   -1.3962  -11.0099 C   0  0  0  0  0  0  0  0  0  0  0  0
  -24.8767   -0.9721  -12.1619 N   0  0  0  0  0  0  0  0  0  0  0  0
  -23.9039   -0.0391  -12.1703 C   0  0  0  0  0  0  0  0  0  0  0  0
  -23.4350    0.0697  -13.4630 C   0  0  0  0  0  0  0  0  0  0  0  0
  -24.1669   -0.8493  -14.1950 C   0  0  0  0  0  0  0  0  0  0  0  0
  -25.0467   -1.4620  -13.3796 N   0  0  0  0  0  0  0  0  0  0  0  0
  -16.4330    1.3713  -15.1766 N   0  0  0  0  0  0  0  0  0  0  0  0
  -15.5763    1.7494  -16.3003 C   0  0  0  0  0  0  0  0  0  0  0  0
  -14.9412    0.7763  -17.1073 C   0  0  0  0  0  0  0  0  0  0  0  0
  -14.0611    1.1336  -18.1388 C   0  0  0  0  0  0  0  0  0  0  0  0
  -13.8027    2.4710  -18.4178 C   0  0  0  0  0  0  0  0  0  0  0  0
  -14.4257    3.4772  -17.6680 C   0  0  0  0  0  0  0  0  0  0  0  0
  -15.2702    3.1113  -16.6099 C   0  0  0  0  0  0  0  0  0  0  0  0
  -14.2370    4.8096  -17.8988 O   0  0  0  0  0  0  0  0  0  0  0  0
  -14.6168    5.5766  -18.9892 C   0  0  0  0  0  0  0  0  0  0  0  0
  -13.6051    5.7404  -19.9216 F   0  0  0  0  0  0  0  0  0  0  0  0
  -15.6652    4.9396  -19.6293 F   0  0  0  0  0  0  0  0  0  0  0  0
  -15.0516    6.8158  -18.5573 F   0  0  0  0  0  0  0  0  0  0  0  0
  -15.8093    0.8673  -13.9426 C   0  0  0  0  0  0  0  0  0  0  0  0
  -15.8915   -0.6689  -13.8542 C   0  0  0  0  0  0  0  0  0  0  0  0
  -15.5473   -1.3213  -12.5297 C   0  0  0  0  0  0  0  0  0  0  0  0
  -14.5256   -1.3203  -13.6736 C   0  0  0  0  0  0  0  0  0  0  0  0
 11 12  1  0  0  0
 12 13  1  0  0  0
 12 16  1  0  0  0
 13 14  2  0  0  0
 14  1  1  0  0  0
 14 15  1  0  0  0
  1  2  1  0  0  0
  1 10  2  0  0  0
  2  3  2  0  0  0
  3  4  1  0  0  0
  4  5  1  0  0  0
  4  9  2  0  0  0
  5  6  2  0  0  0
  6  7  1  0  0  0
  7 17  1  0  0  0
  7  8  2  0  0  0
 17 29  1  0  0  0
 17 18  1  0  0  0
 29 30  1  0  0  0
 30 31  1  0  0  0
 30 32  1  0  0  0
 31 32  1  0  0  0
 18 19  1  0  0  0
 18 23  2  0  0  0
 19 20  2  0  0  0
 20 21  1  0  0  0
 21 22  2  0  0  0
 22 24  1  0  0  0
 22 23  1  0  0  0
 24 25  1  0  0  0
 25 26  1  0  0  0
 25 27  1  0  0  0
 25 28  1  0  0  0
  8  9  1  0  0  0
  9 10  1  0  0  0
 15 16  2  0  0  0
M  END
> <minimizedAffinity>
-9.08326

$$$$
