CHEMBL1929552


 31 34  0  0  0  0  0  0  0  0999 V2000
  -15.3745   -0.5917  -13.6903 C   0  0  0  0  0  0  0  0  0  0  0  0
  -16.5173    0.1806  -13.8192 C   0  0  0  0  0  0  0  0  0  0  0  0
  -16.3193    1.0592  -14.9243 C   0  0  0  0  0  0  0  0  0  0  0  0
  -16.9595    2.1896  -15.4605 C   0  0  0  0  0  0  0  0  0  0  0  0
  -16.3148    2.8519  -16.4551 N   0  0  0  0  0  0  0  0  0  0  0  0
  -15.1212    2.4275  -16.8896 C   0  0  0  0  0  0  0  0  0  0  0  0
  -14.4726    3.2562  -17.7805 N   0  0  0  0  0  0  0  0  0  0  0  0
  -14.4882    1.3140  -16.5128 N   0  0  0  0  0  0  0  0  0  0  0  0
  -15.1176    0.6960  -15.5068 C   0  0  0  0  0  0  0  0  0  0  0  0
  -14.6192   -0.3760  -14.8218 N   0  0  0  0  0  0  0  0  0  0  0  0
  -15.1208    3.8869  -18.2272 H   0  0  0  0  0  0  0  0  0  0  0  0
  -13.8067    2.7531  -18.3449 H   0  0  0  0  0  0  0  0  0  0  0  0
  -13.7325   -0.8082  -15.0400 H   0  0  0  0  0  0  0  0  0  0  0  0
  -18.1539    2.6853  -14.9071 N   0  0  0  0  0  0  0  0  0  0  0  0
  -18.2881    3.6730  -15.0956 H   0  0  0  0  0  0  0  0  0  0  0  0
  -19.3773    2.0035  -14.7327 C   0  0  0  0  0  0  0  0  0  0  0  0
  -19.6184    0.7103  -15.2069 C   0  0  0  0  0  0  0  0  0  0  0  0
  -20.8795    0.1199  -15.0756 C   0  0  0  0  0  0  0  0  0  0  0  0
  -21.9106    0.8140  -14.4486 C   0  0  0  0  0  0  0  0  0  0  0  0
  -23.4670    0.0940  -14.3171 Cl  0  0  0  0  0  0  0  0  0  0  0  0
  -21.6895    2.0854  -13.9322 C   0  0  0  0  0  0  0  0  0  0  0  0
  -20.4306    2.6601  -14.0738 C   0  0  0  0  0  0  0  0  0  0  0  0
  -20.2275    3.8990  -13.5981 F   0  0  0  0  0  0  0  0  0  0  0  0
  -14.8977   -1.4635  -12.5714 C   0  0  0  0  0  0  0  0  0  0  0  0
  -15.4833   -3.0021   -9.9935 C   0  0  0  0  0  0  0  0  0  0  0  0
  -15.8826   -3.5150  -11.3494 C   0  0  0  0  0  0  0  0  0  0  0  0
  -16.5136   -4.7701  -11.4210 C   0  0  0  0  0  0  0  0  0  0  0  0
  -16.8979   -5.3189  -12.6438 C   0  0  0  0  0  0  0  0  0  0  0  0
  -16.6473   -4.6210  -13.8178 C   0  0  0  0  0  0  0  0  0  0  0  0
  -16.0117   -3.3796  -13.7678 C   0  0  0  0  0  0  0  0  0  0  0  0
  -15.6181   -2.8040  -12.5422 C   0  0  0  0  0  0  0  0  0  0  0  0
 25 26  1  0  0  0
 26 27  1  0  0  0
 26 31  2  0  0  0
 27 28  2  0  0  0
 28 29  1  0  0  0
 29 30  2  0  0  0
 30 31  1  0  0  0
 31 24  1  0  0  0
 24  1  1  0  0  0
  1  2  2  0  0  0
  1 10  1  0  0  0
  2  3  1  0  0  0
  3  4  1  0  0  0
  3  9  2  0  0  0
  4 14  1  0  0  0
  4  5  2  0  0  0
 14 16  1  0  0  0
 14 15  1  0  0  0
 16 17  1  0  0  0
 16 22  2  0  0  0
 17 18  2  0  0  0
 18 19  1  0  0  0
 19 20  1  0  0  0
 19 21  2  0  0  0
 21 22  1  0  0  0
 22 23  1  0  0  0
  5  6  1  0  0  0
  6  7  1  0  0  0
  6  8  2  0  0  0
  7 11  1  0  0  0
  7 12  1  0  0  0
  8  9  1  0  0  0
  9 10  1  0  0  0
 10 13  1  0  0  0
M  END
> <minimizedAffinity>
-9.48985

$$$$
