CHEMBL3221551


 31 33  0  0  0  0  0  0  0  0999 V2000
  -28.9059   -7.4270   -3.7340 N   0  0  0  0  0  0  0  0  0  0  0  0
  -29.4267   -7.8299   -2.9508 H   0  0  0  0  0  0  0  0  0  0  0  0
  -28.1225   -8.3226   -4.5486 C   0  0  0  0  0  0  0  0  0  0  0  0
  -26.8712   -8.6903   -4.1609 N   0  0  0  0  0  0  0  0  0  0  0  0
  -26.0893   -9.5211   -4.8928 C   0  0  0  0  0  0  0  0  0  0  0  0
  -26.5427  -10.0153   -6.0652 N   0  0  0  0  0  0  0  0  0  0  0  0
  -27.7761   -9.6952   -6.5282 C   0  0  0  0  0  0  0  0  0  0  0  0
  -28.1973  -10.2244   -7.7470 C   0  0  0  0  0  0  0  0  0  0  0  0
  -29.4665   -9.9169   -8.2721 C   0  0  0  0  0  0  0  0  0  0  0  0
  -30.3198   -9.0531   -7.5412 C   0  0  0  0  0  0  0  0  0  0  0  0
  -29.8893   -8.5301   -6.3171 C   0  0  0  0  0  0  0  0  0  0  0  0
  -28.6164   -8.8344   -5.7861 C   0  0  0  0  0  0  0  0  0  0  0  0
  -29.8770  -10.4335   -9.4599 O   0  0  0  0  0  0  0  0  0  0  0  0
  -29.0708  -10.7178  -10.5424 C   0  0  0  0  0  0  0  0  0  0  0  0
  -31.5621   -8.6765   -7.9538 O   0  0  0  0  0  0  0  0  0  0  0  0
  -32.6913   -8.4950   -7.1864 C   0  0  0  0  0  0  0  0  0  0  0  0
  -29.3231   -3.1800   -4.1108 C   0  0  0  0  0  0  0  0  0  0  0  0
  -30.4686   -4.0044   -4.1179 C   0  0  0  0  0  0  0  0  0  0  0  0
  -30.3639   -5.3903   -4.0073 C   0  0  0  0  0  0  0  0  0  0  0  0
  -29.1054   -6.0116   -3.8871 C   0  0  0  0  0  0  0  0  0  0  0  0
  -27.9629   -5.1874   -3.9113 C   0  0  0  0  0  0  0  0  0  0  0  0
  -28.0686   -3.7996   -4.0272 C   0  0  0  0  0  0  0  0  0  0  0  0
  -29.3277   -1.0038   -5.3089 C   0  0  0  0  0  0  0  0  0  0  0  0
  -29.4853    0.2075   -5.2472 O   0  0  0  0  0  0  0  0  0  0  0  0
  -29.3771   -1.7461   -4.1645 N   0  0  0  0  0  0  0  0  0  0  0  0
  -29.5842   -1.2418   -3.2867 H   0  0  0  0  0  0  0  0  0  0  0  0
  -29.2093   -1.6027   -6.5176 O   0  0  0  0  0  0  0  0  0  0  0  0
  -28.0159   -1.7843   -7.1862 C   0  0  0  0  0  0  0  0  0  0  0  0
  -28.1025   -2.9108   -8.2167 C   0  0  0  0  0  0  0  0  0  0  0  0
  -28.6530   -5.2980   -7.5779 C   0  0  0  0  0  0  0  0  0  0  0  0
  -29.2189   -3.9126   -7.8858 C   0  0  0  0  0  0  0  0  0  0  0  0
 30 31  1  0  0  0
 31 29  1  0  0  0
 29 28  1  0  0  0
 28 27  1  0  0  0
 27 23  1  0  0  0
 23 24  2  0  0  0
 23 25  1  0  0  0
 25 17  1  0  0  0
 25 26  1  0  0  0
 17 18  1  0  0  0
 17 22  2  0  0  0
 18 19  2  0  0  0
 19 20  1  0  0  0
 20  1  1  0  0  0
 20 21  2  0  0  0
  1  3  1  0  0  0
  1  2  1  0  0  0
  3  4  1  0  0  0
  3 12  2  0  0  0
  4  5  2  0  0  0
  5  6  1  0  0  0
  6  7  2  0  0  0
  7  8  1  0  0  0
  7 12  1  0  0  0
  8  9  2  0  0  0
  9 13  1  0  0  0
  9 10  1  0  0  0
 13 14  1  0  0  0
 10 15  1  0  0  0
 10 11  2  0  0  0
 15 16  1  0  0  0
 11 12  1  0  0  0
 21 22  1  0  0  0
M  END
> <minimizedAffinity>
-7.22713

$$$$
