CHEMBL3656081


 46 49  0  0  0  0  0  0  0  0999 V2000
  -15.7870    0.9938  -14.3803 C   0  0  0  0  0  0  0  0  0  0  0  0
  -15.8108    0.0835  -13.3332 C   0  0  0  0  0  0  0  0  0  0  0  0
  -14.6811   -0.6909  -13.0774 C   0  0  0  0  0  0  0  0  0  0  0  0
  -13.5246   -0.4450  -13.8061 C   0  0  0  0  0  0  0  0  0  0  0  0
  -13.5750    0.5180  -14.8048 C   0  0  0  0  0  0  0  0  0  0  0  0
  -14.6835    1.2323  -15.1257 N   0  0  0  0  0  0  0  0  0  0  0  0
  -19.1319    2.5188  -15.0277 C   0  0  0  0  0  0  0  0  0  0  0  0
  -18.2816    3.2288  -15.8602 C   0  0  0  0  0  0  0  0  0  0  0  0
  -17.0027    2.7417  -15.6961 N   0  0  0  0  0  0  0  0  0  0  0  0
  -16.9915    1.7265  -14.7697 C   0  0  0  0  0  0  0  0  0  0  0  0
  -18.3066    1.5678  -14.3576 C   0  0  0  0  0  0  0  0  0  0  0  0
  -16.1702    3.0635  -16.1758 H   0  0  0  0  0  0  0  0  0  0  0  0
  -21.2040    1.5590  -14.2471 N   0  0  0  0  0  0  0  0  0  0  0  0
  -20.5728    2.6438  -14.8164 C   0  0  0  0  0  0  0  0  0  0  0  0
  -21.1847    3.6588  -15.1369 O   0  0  0  0  0  0  0  0  0  0  0  0
  -20.6672    0.7330  -14.0279 H   0  0  0  0  0  0  0  0  0  0  0  0
  -22.6294    1.5677  -13.9964 C   0  0  0  0  0  0  0  0  0  0  0  0
  -23.0383    0.4932  -12.9910 C   0  0  0  0  0  0  0  0  0  0  0  0
  -23.3438   -0.8301  -13.6879 C   0  0  0  0  0  0  0  0  0  0  0  0
  -25.3191   -0.9349  -12.2716 N   0  0  0  0  0  0  0  0  0  0  0  0
  -24.7814   -1.2666  -13.4941 C   0  0  0  0  0  0  0  0  0  0  0  0
  -25.3910   -1.8904  -14.3578 O   0  0  0  0  0  0  0  0  0  0  0  0
  -24.7706   -0.3907  -11.6175 H   0  0  0  0  0  0  0  0  0  0  0  0
  -26.8193   -1.5891  -10.4360 C   0  0  0  0  0  0  0  0  0  0  0  0
  -26.6827   -1.2677  -11.9142 C   0  0  0  0  0  0  0  0  0  0  0  0
  -14.6280   -1.6785  -12.1106 O   0  0  0  0  0  0  0  0  0  0  0  0
  -14.5755   -3.0007  -12.5079 C   0  0  0  0  0  0  0  0  0  0  0  0
  -13.4644   -3.8117  -12.3001 C   0  0  0  0  0  0  0  0  0  0  0  0
  -13.4257   -5.1016  -12.8298 C   0  0  0  0  0  0  0  0  0  0  0  0
  -14.5205   -5.6473  -13.5048 C   0  0  0  0  0  0  0  0  0  0  0  0
  -15.6794   -4.8681  -13.6138 C   0  0  0  0  0  0  0  0  0  0  0  0
  -15.7038   -3.5475  -13.1229 C   0  0  0  0  0  0  0  0  0  0  0  0
  -14.4932   -6.9384  -14.0944 N   0  0  0  0  0  0  0  0  0  0  0  0
  -13.7926   -7.2828  -15.2395 C   0  0  0  0  0  0  0  0  0  0  0  0
  -13.0254   -6.5471  -15.8467 O   0  0  0  0  0  0  0  0  0  0  0  0
  -14.0795   -8.5731  -15.6722 N   0  0  0  0  0  0  0  0  0  0  0  0
  -14.9773   -7.6800  -13.6131 H   0  0  0  0  0  0  0  0  0  0  0  0
  -15.0523   -8.8346  -15.5719 H   0  0  0  0  0  0  0  0  0  0  0  0
  -13.4668   -9.0396  -16.8692 C   0  0  0  0  0  0  0  0  0  0  0  0
  -13.6393   -8.3744  -18.0904 C   0  0  0  0  0  0  0  0  0  0  0  0
  -13.1219   -8.9148  -19.2789 C   0  0  0  0  0  0  0  0  0  0  0  0
  -13.3184   -8.2112  -20.5902 C   0  0  0  0  0  0  0  0  0  0  0  0
  -12.4409  -10.1376  -19.2316 C   0  0  0  0  0  0  0  0  0  0  0  0
  -12.2442  -10.7907  -18.0126 C   0  0  0  0  0  0  0  0  0  0  0  0
  -12.7355  -10.2260  -16.8395 C   0  0  0  0  0  0  0  0  0  0  0  0
  -12.5684  -10.8761  -15.6770 F   0  0  0  0  0  0  0  0  0  0  0  0
 24 25  1  0  0  0
 25 20  1  0  0  0
 20 21  1  0  0  0
 20 23  1  0  0  0
 21 22  2  0  0  0
 21 19  1  0  0  0
 19 18  1  0  0  0
 18 17  1  0  0  0
 17 13  1  0  0  0
 13 14  1  0  0  0
 13 16  1  0  0  0
 14 15  2  0  0  0
 14  7  1  0  0  0
  7  8  2  0  0  0
  7 11  1  0  0  0
  8  9  1  0  0  0
  9 10  1  0  0  0
  9 12  1  0  0  0
 10  1  1  0  0  0
 10 11  2  0  0  0
  1  2  1  0  0  0
  1  6  2  0  0  0
  2  3  2  0  0  0
  3 26  1  0  0  0
  3  4  1  0  0  0
 26 27  1  0  0  0
 27 28  1  0  0  0
 27 32  2  0  0  0
 28 29  2  0  0  0
 29 30  1  0  0  0
 30 33  1  0  0  0
 30 31  2  0  0  0
 33 34  1  0  0  0
 33 37  1  0  0  0
 34 35  2  0  0  0
 34 36  1  0  0  0
 36 39  1  0  0  0
 36 38  1  0  0  0
 39 40  1  0  0  0
 39 45  2  0  0  0
 40 41  2  0  0  0
 41 42  1  0  0  0
 41 43  1  0  0  0
 43 44  2  0  0  0
 44 45  1  0  0  0
 45 46  1  0  0  0
 31 32  1  0  0  0
  4  5  2  0  0  0
  5  6  1  0  0  0
M  END
> <minimizedAffinity>
-8.98427

$$$$
