CHEMBL2337362


 29 32  0  0  0  0  0  0  0  0999 V2000
  -29.0542   -6.2864   -7.4172 C   0  0  0  0  0  0  0  0  0  0  0  0
  -28.3144   -6.5359   -6.2937 N   0  0  0  0  0  0  0  0  0  0  0  0
  -28.9570   -7.0805   -5.2564 C   0  0  0  0  0  0  0  0  0  0  0  0
  -28.2155   -7.5773   -4.2058 N   0  0  0  0  0  0  0  0  0  0  0  0
  -30.2848   -7.2125   -5.1622 N   0  0  0  0  0  0  0  0  0  0  0  0
  -30.8789   -7.1856   -6.3757 C   0  0  0  0  0  0  0  0  0  0  0  0
  -32.0190   -7.8883   -6.6855 N   0  0  0  0  0  0  0  0  0  0  0  0
  -31.4459   -9.0614   -7.1607 C   0  0  0  0  0  0  0  0  0  0  0  0
  -31.7617  -10.3950   -6.8855 C   0  0  0  0  0  0  0  0  0  0  0  0
  -30.9014  -11.3643   -7.3960 C   0  0  0  0  0  0  0  0  0  0  0  0
  -29.8424  -11.0028   -8.2298 C   0  0  0  0  0  0  0  0  0  0  0  0
  -29.5603   -9.6477   -8.4871 C   0  0  0  0  0  0  0  0  0  0  0  0
  -28.2717   -9.1818   -9.5004 Cl  0  0  0  0  0  0  0  0  0  0  0  0
  -30.3155   -8.6166   -7.8827 C   0  0  0  0  0  0  0  0  0  0  0  0
  -30.1684   -7.1514   -7.5896 C   0  0  0  0  0  0  0  0  0  0  0  0
  -27.4595   -6.9547   -3.9712 H   0  0  0  0  0  0  0  0  0  0  0  0
  -28.8368   -7.8692   -3.4652 H   0  0  0  0  0  0  0  0  0  0  0  0
  -32.7256   -7.4590   -7.2616 H   0  0  0  0  0  0  0  0  0  0  0  0
  -29.0088   -4.9278   -7.8010 N   0  0  0  0  0  0  0  0  0  0  0  0
  -28.8257   -4.8736   -8.7967 H   0  0  0  0  0  0  0  0  0  0  0  0
  -29.1559   -1.1483   -5.8294 C   0  0  0  0  0  0  0  0  0  0  0  0
  -30.0339   -2.1945   -5.4915 C   0  0  0  0  0  0  0  0  0  0  0  0
  -29.9770   -3.4396   -6.1121 C   0  0  0  0  0  0  0  0  0  0  0  0
  -29.0498   -3.7050   -7.1193 C   0  0  0  0  0  0  0  0  0  0  0  0
  -28.1543   -2.6670   -7.4520 C   0  0  0  0  0  0  0  0  0  0  0  0
  -28.2028   -1.4034   -6.8201 C   0  0  0  0  0  0  0  0  0  0  0  0
  -28.0400    0.9812   -4.8474 C   0  0  0  0  0  0  0  0  0  0  0  0
  -29.3160    0.1683   -5.0772 C   0  0  0  0  0  0  0  0  0  0  0  0
  -30.3878    1.0535   -5.7238 C   0  0  0  0  0  0  0  0  0  0  0  0
 27 28  1  0  0  0
 28 29  1  0  0  0
 28 21  1  0  0  0
 21 22  1  0  0  0
 21 26  2  0  0  0
 22 23  2  0  0  0
 23 24  1  0  0  0
 24 19  1  0  0  0
 24 25  2  0  0  0
 19  1  1  0  0  0
 19 20  1  0  0  0
  1  2  1  0  0  0
  1 15  2  0  0  0
  2  3  2  0  0  0
  3  4  1  0  0  0
  3  5  1  0  0  0
  4 16  1  0  0  0
  4 17  1  0  0  0
  5  6  2  0  0  0
  6  7  1  0  0  0
  6 15  1  0  0  0
  7  8  1  0  0  0
  7 18  1  0  0  0
  8  9  1  0  0  0
  8 14  2  0  0  0
  9 10  2  0  0  0
 10 11  1  0  0  0
 11 12  2  0  0  0
 12 13  1  0  0  0
 12 14  1  0  0  0
 14 15  1  0  0  0
 25 26  1  0  0  0
M  END
> <minimizedAffinity>
-9.08427

$$$$
