CHEMBL1242117


 24 27  0  0  0  0  0  0  0  0999 V2000
  -31.8903   -8.9642   -7.7157 C   0  0  0  0  0  0  0  0  0  0  0  0
  -30.8053   -8.2079   -7.1423 N   0  0  0  0  0  0  0  0  0  0  0  0
  -30.7558   -6.8807   -7.3207 N   0  0  0  0  0  0  0  0  0  0  0  0
  -29.7733   -6.4608   -6.4957 C   0  0  0  0  0  0  0  0  0  0  0  0
  -29.1186   -7.5749   -5.8762 C   0  0  0  0  0  0  0  0  0  0  0  0
  -28.0854   -7.8421   -4.9669 C   0  0  0  0  0  0  0  0  0  0  0  0
  -27.2519   -6.8963   -4.3940 N   0  0  0  0  0  0  0  0  0  0  0  0
  -27.8692   -9.1204   -4.5814 N   0  0  0  0  0  0  0  0  0  0  0  0
  -28.6580  -10.0925   -5.0738 C   0  0  0  0  0  0  0  0  0  0  0  0
  -29.6700   -9.9642   -5.9419 N   0  0  0  0  0  0  0  0  0  0  0  0
  -29.8413   -8.6821   -6.3077 C   0  0  0  0  0  0  0  0  0  0  0  0
  -27.6706   -5.9985   -4.2006 H   0  0  0  0  0  0  0  0  0  0  0  0
  -26.7290   -7.3030   -3.6255 H   0  0  0  0  0  0  0  0  0  0  0  0
  -29.6603   -5.0133   -6.2709 C   0  0  0  0  0  0  0  0  0  0  0  0
  -30.3636   -4.4915   -5.1657 C   0  0  0  0  0  0  0  0  0  0  0  0
  -30.3342   -3.1423   -4.8419 C   0  0  0  0  0  0  0  0  0  0  0  0
  -29.5558   -2.2793   -5.6057 C   0  0  0  0  0  0  0  0  0  0  0  0
  -29.5496   -0.9633   -5.2183 O   0  0  0  0  0  0  0  0  0  0  0  0
  -28.6909   -0.1162   -5.8698 C   0  0  0  0  0  0  0  0  0  0  0  0
  -27.8929   -0.4486   -6.8882 C   0  0  0  0  0  0  0  0  0  0  0  0
  -27.9348   -1.8331   -7.3985 C   0  0  0  0  0  0  0  0  0  0  0  0
  -27.2301   -2.1810   -8.3356 O   0  0  0  0  0  0  0  0  0  0  0  0
  -28.8262   -2.7734   -6.6893 C   0  0  0  0  0  0  0  0  0  0  0  0
  -28.9015   -4.1341   -7.0513 C   0  0  0  0  0  0  0  0  0  0  0  0
  1  2  1  0  0  0
  2  3  1  0  0  0
  2 11  1  0  0  0
  3  4  2  0  0  0
  4 14  1  0  0  0
  4  5  1  0  0  0
 14 15  1  0  0  0
 14 24  2  0  0  0
 15 16  2  0  0  0
 16 17  1  0  0  0
 17 18  1  0  0  0
 17 23  2  0  0  0
 18 19  1  0  0  0
 19 20  2  0  0  0
 20 21  1  0  0  0
 21 22  2  0  0  0
 21 23  1  0  0  0
 23 24  1  0  0  0
  5  6  1  0  0  0
  5 11  2  0  0  0
  6  7  1  0  0  0
  6  8  2  0  0  0
  7 12  1  0  0  0
  7 13  1  0  0  0
  8  9  1  0  0  0
  9 10  2  0  0  0
 10 11  1  0  0  0
M  END
> <minimizedAffinity>
-8.40454

$$$$
