CHEMBL212987


 40 45  0  0  0  0  0  0  0  0999 V2000
  -13.4541   -5.1768  -12.3575 C   0  0  0  0  0  0  0  0  0  0  0  0
  -12.1280   -5.5834  -12.3645 N   0  0  0  0  0  0  0  0  0  0  0  0
  -11.9459   -6.8910  -12.7886 N   0  0  0  0  0  0  0  0  0  0  0  0
  -13.1915   -7.3835  -12.8471 C   0  0  0  0  0  0  0  0  0  0  0  0
  -14.1285   -6.3832  -12.4271 C   0  0  0  0  0  0  0  0  0  0  0  0
  -15.4723   -6.7295  -12.9379 C   0  0  0  0  0  0  0  0  0  0  0  0
  -14.8735   -7.2524  -14.2552 C   0  0  0  0  0  0  0  0  0  0  0  0
  -14.4270   -6.4616  -15.3497 C   0  0  0  0  0  0  0  0  0  0  0  0
  -13.5038   -7.0176  -16.2570 C   0  0  0  0  0  0  0  0  0  0  0  0
  -13.3176   -8.3908  -16.1836 C   0  0  0  0  0  0  0  0  0  0  0  0
  -13.4327   -8.9774  -14.9299 C   0  0  0  0  0  0  0  0  0  0  0  0
  -13.9272   -8.2279  -13.8828 C   0  0  0  0  0  0  0  0  0  0  0  0
  -11.3061   -4.9999  -12.2875 H   0  0  0  0  0  0  0  0  0  0  0  0
  -14.5684   -1.3979  -12.7602 C   0  0  0  0  0  0  0  0  0  0  0  0
  -15.4582   -2.0806  -11.9786 C   0  0  0  0  0  0  0  0  0  0  0  0
  -15.2789   -3.4623  -12.0579 C   0  0  0  0  0  0  0  0  0  0  0  0
  -14.0356   -3.8496  -12.5460 C   0  0  0  0  0  0  0  0  0  0  0  0
  -13.3818   -2.5069  -13.4047 S   0  0  0  0  0  0  0  0  0  0  0  0
  -14.5207    0.1169  -12.9701 C   0  0  0  0  0  0  0  0  0  0  0  0
  -17.4238    1.5771  -14.9305 N   0  0  0  0  0  0  0  0  0  0  0  0
  -16.9738    1.7793  -16.2894 C   0  0  0  0  0  0  0  0  0  0  0  0
  -16.5719    1.0692  -13.9034 C   0  0  0  0  0  0  0  0  0  0  0  0
  -16.9847    0.9247  -12.7483 O   0  0  0  0  0  0  0  0  0  0  0  0
  -15.2337    0.6673  -14.1711 N   0  0  0  0  0  0  0  0  0  0  0  0
  -14.4595    0.6093  -15.4110 C   0  0  0  0  0  0  0  0  0  0  0  0
  -22.1777    0.1803  -14.1009 C   0  0  0  0  0  0  0  0  0  0  0  0
  -21.1928    1.3009  -14.3110 C   0  0  0  0  0  0  0  0  0  0  0  0
  -21.6030    2.6217  -14.4313 C   0  0  0  0  0  0  0  0  0  0  0  0
  -20.6535    3.6181  -14.6470 C   0  0  0  0  0  0  0  0  0  0  0  0
  -19.2858    3.3114  -14.7782 C   0  0  0  0  0  0  0  0  0  0  0  0
  -18.8217    1.9830  -14.6906 C   0  0  0  0  0  0  0  0  0  0  0  0
  -19.8205    1.0103  -14.4167 C   0  0  0  0  0  0  0  0  0  0  0  0
  -12.4762   -6.2141  -17.0442 C   0  0  0  0  0  0  0  0  0  0  0  0
  -13.0242   -5.2353  -17.9835 N   0  0  0  0  0  0  0  0  0  0  0  0
  -11.9669   -4.7084  -18.8579 C   0  0  0  0  0  0  0  0  0  0  0  0
  -12.5303   -3.7066  -19.8846 C   0  0  0  0  0  0  0  0  0  0  0  0
  -13.6062   -4.2378  -20.7441 N   0  0  0  0  0  0  0  0  0  0  0  0
  -13.0882   -5.1687  -21.7426 C   0  0  0  0  0  0  0  0  0  0  0  0
  -14.6369   -4.8638  -19.8898 C   0  0  0  0  0  0  0  0  0  0  0  0
  -14.0943   -5.8399  -18.8131 C   0  0  0  0  0  0  0  0  0  0  0  0
 26 27  1  0  0  0
 27 28  1  0  0  0
 27 32  2  0  0  0
 28 29  2  0  0  0
 29 30  1  0  0  0
 30 31  2  0  0  0
 31 20  1  0  0  0
 31 32  1  0  0  0
 20 21  1  0  0  0
 20 22  1  0  0  0
 22 23  2  0  0  0
 22 24  1  0  0  0
 24 25  1  0  0  0
 24 19  1  0  0  0
 19 14  1  0  0  0
 14 15  2  0  0  0
 14 18  1  0  0  0
 15 16  1  0  0  0
 16 17  2  0  0  0
 17  1  1  0  0  0
 17 18  1  0  0  0
  1  2  1  0  0  0
  1  5  2  0  0  0
  2  3  1  0  0  0
  2 13  1  0  0  0
  3  4  2  0  0  0
  4  5  1  0  0  0
  4 12  1  0  0  0
  5  6  1  0  0  0
  6  7  1  0  0  0
  7  8  1  0  0  0
  7 12  2  0  0  0
  8  9  2  0  0  0
  9 33  1  0  0  0
  9 10  1  0  0  0
 33 34  1  0  0  0
 34 35  1  0  0  0
 34 40  1  0  0  0
 35 36  1  0  0  0
 36 37  1  0  0  0
 37 38  1  0  0  0
 37 39  1  0  0  0
 39 40  1  0  0  0
 10 11  2  0  0  0
 11 12  1  0  0  0
M  END
> <minimizedAffinity>
-9.18770

$$$$
