CHEMBL380334


 22 24  0  0  0  0  0  0  0  0999 V2000
  -29.0406   -4.1038   -6.2956 C   0  0  0  0  0  0  0  0  0  0  0  0
  -29.1042   -4.8365   -5.1727 C   0  0  0  0  0  0  0  0  0  0  0  0
  -28.8037   -4.4924   -3.7603 C   0  0  0  0  0  0  0  0  0  0  0  0
  -28.5469   -3.4099   -3.2696 O   0  0  0  0  0  0  0  0  0  0  0  0
  -28.8733   -5.7089   -3.1065 N   0  0  0  0  0  0  0  0  0  0  0  0
  -29.2505   -6.7736   -3.8851 N   0  0  0  0  0  0  0  0  0  0  0  0
  -29.4275   -6.2941   -5.0945 C   0  0  0  0  0  0  0  0  0  0  0  0
  -28.7358   -5.8166   -2.1083 H   0  0  0  0  0  0  0  0  0  0  0  0
  -28.7622    0.6561   -5.0706 C   0  0  0  0  0  0  0  0  0  0  0  0
  -28.5653   -0.5400   -5.9232 C   0  0  0  0  0  0  0  0  0  0  0  0
  -27.9936   -0.6923   -7.1647 C   0  0  0  0  0  0  0  0  0  0  0  0
  -28.0749   -2.0688   -7.5161 C   0  0  0  0  0  0  0  0  0  0  0  0
  -27.5742   -2.6658   -8.7847 C   0  0  0  0  0  0  0  0  0  0  0  0
  -28.7033   -2.7295   -6.4628 C   0  0  0  0  0  0  0  0  0  0  0  0
  -28.9885   -1.7783   -5.5132 N   0  0  0  0  0  0  0  0  0  0  0  0
  -29.4513   -1.9501   -4.6266 H   0  0  0  0  0  0  0  0  0  0  0  0
  -29.9151   -7.1131   -6.2104 C   0  0  0  0  0  0  0  0  0  0  0  0
  -29.0119   -7.6781   -7.0992 C   0  0  0  0  0  0  0  0  0  0  0  0
  -29.4040   -8.4856   -8.1186 N   0  0  0  0  0  0  0  0  0  0  0  0
  -30.7338   -8.7220   -8.1905 C   0  0  0  0  0  0  0  0  0  0  0  0
  -31.6351   -8.1720   -7.2924 C   0  0  0  0  0  0  0  0  0  0  0  0
  -31.2482   -7.3551   -6.2863 N   0  0  0  0  0  0  0  0  0  0  0  0
  9 10  1  0  0  0
 10 11  2  0  0  0
 10 15  1  0  0  0
 11 12  1  0  0  0
 12 13  1  0  0  0
 12 14  2  0  0  0
 14  1  1  0  0  0
 14 15  1  0  0  0
  1  2  2  0  0  0
  2  3  1  0  0  0
  2  7  1  0  0  0
  3  4  2  0  0  0
  3  5  1  0  0  0
  5  6  1  0  0  0
  5  8  1  0  0  0
  6  7  2  0  0  0
  7 17  1  0  0  0
 17 18  1  0  0  0
 17 22  2  0  0  0
 18 19  2  0  0  0
 19 20  1  0  0  0
 20 21  2  0  0  0
 21 22  1  0  0  0
 15 16  1  0  0  0
M  END
> <minimizedAffinity>
-7.80535

$$$$
