CHEMBL3893032


 31 34  0  0  0  0  0  0  0  0999 V2000
  -28.2677   11.4482  -15.1982 C   0  0  0  0  0  0  0  0  0  0  0  0
  -26.9439   11.1385  -15.4985 C   0  0  0  0  0  0  0  0  0  0  0  0
  -25.8860   11.4912  -14.6443 C   0  0  0  0  0  0  0  0  0  0  0  0
  -24.5520   11.1253  -14.8881 C   0  0  0  0  0  0  0  0  0  0  0  0
  -23.5624   11.4312  -14.0330 N   0  0  0  0  0  0  0  0  0  0  0  0
  -23.9110   12.1323  -12.9493 C   0  0  0  0  0  0  0  0  0  0  0  0
  -25.1472   12.5399  -12.6246 N   0  0  0  0  0  0  0  0  0  0  0  0
  -26.1350   12.2037  -13.4679 C   0  0  0  0  0  0  0  0  0  0  0  0
  -27.4567   12.5592  -13.1916 C   0  0  0  0  0  0  0  0  0  0  0  0
  -28.5302   12.1906  -14.0229 C   0  0  0  0  0  0  0  0  0  0  0  0
  -29.1006   10.0974  -17.0282 C   0  0  0  0  0  0  0  0  0  0  0  0
  -29.2972   11.0473  -15.9905 O   0  0  0  0  0  0  0  0  0  0  0  0
  -24.2435   10.3985  -16.0770 N   0  0  0  0  0  0  0  0  0  0  0  0
  -25.0433    9.8291  -16.3328 H   0  0  0  0  0  0  0  0  0  0  0  0
  -23.5720   10.9389  -17.1908 C   0  0  0  0  0  0  0  0  0  0  0  0
  -24.2968   11.4796  -18.2622 C   0  0  0  0  0  0  0  0  0  0  0  0
  -23.6465   11.9229  -19.4113 C   0  0  0  0  0  0  0  0  0  0  0  0
  -22.2624   11.8351  -19.4899 C   0  0  0  0  0  0  0  0  0  0  0  0
  -21.6566   12.2137  -20.6244 F   0  0  0  0  0  0  0  0  0  0  0  0
  -21.5226   11.3500  -18.4130 C   0  0  0  0  0  0  0  0  0  0  0  0
  -19.8058   11.2466  -18.5047 Cl  0  0  0  0  0  0  0  0  0  0  0  0
  -22.1734   10.9189  -17.2555 C   0  0  0  0  0  0  0  0  0  0  0  0
  -29.7624   12.6296  -13.5552 O   0  0  0  0  0  0  0  0  0  0  0  0
  -30.4272   11.7253  -12.6748 C   0  0  0  0  0  0  0  0  0  0  0  0
  -31.8899   12.0461  -12.3435 C   0  0  0  0  0  0  0  0  0  0  0  0
  -32.6513   10.9427  -11.5795 C   0  0  0  0  0  0  0  0  0  0  0  0
  -32.9097    9.7329  -12.3934 N   0  0  0  0  0  0  0  0  0  0  0  0
  -33.7666    8.8000  -11.6590 C   0  0  0  0  0  0  0  0  0  0  0  0
  -33.5584   10.1169  -13.6642 C   0  0  0  0  0  0  0  0  0  0  0  0
  -32.7741   11.2070  -14.4036 C   0  0  0  0  0  0  0  0  0  0  0  0
  -32.5959   12.3675  -13.5730 O   0  0  0  0  0  0  0  0  0  0  0  0
 11 12  1  0  0  0
 12  1  1  0  0  0
  1  2  1  0  0  0
  1 10  2  0  0  0
  2  3  2  0  0  0
  3  4  1  0  0  0
  3  8  1  0  0  0
  4 13  1  0  0  0
  4  5  2  0  0  0
 13 15  1  0  0  0
 13 14  1  0  0  0
 15 16  1  0  0  0
 15 22  2  0  0  0
 16 17  2  0  0  0
 17 18  1  0  0  0
 18 19  1  0  0  0
 18 20  2  0  0  0
 20 21  1  0  0  0
 20 22  1  0  0  0
  5  6  1  0  0  0
  6  7  2  0  0  0
  7  8  1  0  0  0
  8  9  2  0  0  0
  9 10  1  0  0  0
 10 23  1  0  0  0
 23 24  1  0  0  0
 24 25  1  0  0  0
 25 26  1  0  0  0
 25 31  1  0  0  0
 26 27  1  0  0  0
 27 28  1  0  0  0
 27 29  1  0  0  0
 29 30  1  0  0  0
 30 31  1  0  0  0
M  END
> <minimizedAffinity>
-6.11368

$$$$
