CHEMBL3978824


 47 51  0  0  0  0  0  0  0  0999 V2000
  -12.5195   -0.3336  -13.7804 C   0  0  0  0  0  0  0  0  0  0  0  0
  -13.8478   -0.3651  -14.1510 C   0  0  0  0  0  0  0  0  0  0  0  0
  -14.2901    0.8503  -14.7444 C   0  0  0  0  0  0  0  0  0  0  0  0
  -15.5607    1.0835  -15.1677 N   0  0  0  0  0  0  0  0  0  0  0  0
  -15.7960    2.3088  -15.6635 C   0  0  0  0  0  0  0  0  0  0  0  0
  -14.8525    3.3070  -15.7878 C   0  0  0  0  0  0  0  0  0  0  0  0
  -13.5240    3.0433  -15.4249 C   0  0  0  0  0  0  0  0  0  0  0  0
  -13.2612    1.7897  -14.8459 C   0  0  0  0  0  0  0  0  0  0  0  0
  -11.7941    1.1574  -14.2079 S   0  0  0  0  0  0  0  0  0  0  0  0
  -11.9038   -2.6489  -13.6986 N   0  0  0  0  0  0  0  0  0  0  0  0
  -11.7900   -1.4051  -13.1211 C   0  0  0  0  0  0  0  0  0  0  0  0
  -11.1070   -1.2195  -12.1151 O   0  0  0  0  0  0  0  0  0  0  0  0
  -12.5334   -2.7648  -14.4833 H   0  0  0  0  0  0  0  0  0  0  0  0
  -11.2918   -3.8284  -13.1324 C   0  0  0  0  0  0  0  0  0  0  0  0
  -12.0787   -5.0965  -13.4579 C   0  0  0  0  0  0  0  0  0  0  0  0
  -13.3842   -5.2478  -12.6500 C   0  0  0  0  0  0  0  0  0  0  0  0
  -15.1245   -3.7843  -11.6118 C   0  0  0  0  0  0  0  0  0  0  0  0
  -16.3580   -4.6640  -11.7284 C   0  0  0  0  0  0  0  0  0  0  0  0
  -16.6704   -4.5962  -13.2064 C   0  0  0  0  0  0  0  0  0  0  0  0
  -15.3179   -4.3989  -13.8797 C   0  0  0  0  0  0  0  0  0  0  0  0
  -14.3163   -4.1196  -12.8248 N   0  0  0  0  0  0  0  0  0  0  0  0
  -14.4292   -3.9109  -10.2579 C   0  0  0  0  0  0  0  0  0  0  0  0
  -14.8391   -4.5981   -9.3295 O   0  0  0  0  0  0  0  0  0  0  0  0
  -12.3485   -3.5143   -9.2377 C   0  0  0  0  0  0  0  0  0  0  0  0
  -13.3294   -3.1034  -10.1940 O   0  0  0  0  0  0  0  0  0  0  0  0
  -12.5071    3.9714  -15.5848 O   0  0  0  0  0  0  0  0  0  0  0  0
  -12.6258    4.9003  -16.5998 C   0  0  0  0  0  0  0  0  0  0  0  0
  -12.9060    4.5529  -17.9212 C   0  0  0  0  0  0  0  0  0  0  0  0
  -13.1346    5.5427  -18.8734 C   0  0  0  0  0  0  0  0  0  0  0  0
  -13.0476    6.8972  -18.5381 C   0  0  0  0  0  0  0  0  0  0  0  0
  -12.6357    7.2315  -17.2462 C   0  0  0  0  0  0  0  0  0  0  0  0
  -12.4852    8.5224  -16.9096 F   0  0  0  0  0  0  0  0  0  0  0  0
  -12.4323    6.2457  -16.2740 C   0  0  0  0  0  0  0  0  0  0  0  0
  -13.3711    7.9112  -19.4798 N   0  0  0  0  0  0  0  0  0  0  0  0
  -14.6376    8.4490  -19.5552 C   0  0  0  0  0  0  0  0  0  0  0  0
  -15.5217    8.2127  -18.7345 O   0  0  0  0  0  0  0  0  0  0  0  0
  -14.8292    9.2510  -20.6725 N   0  0  0  0  0  0  0  0  0  0  0  0
  -12.6070    8.5026  -19.7915 H   0  0  0  0  0  0  0  0  0  0  0  0
  -14.3595    8.9016  -21.5003 H   0  0  0  0  0  0  0  0  0  0  0  0
  -16.1525    9.7269  -20.8966 C   0  0  0  0  0  0  0  0  0  0  0  0
  -16.6036   10.8959  -20.2714 C   0  0  0  0  0  0  0  0  0  0  0  0
  -17.9670   11.2081  -20.2380 C   0  0  0  0  0  0  0  0  0  0  0  0
  -18.4512   12.3810  -19.4371 C   0  0  0  0  0  0  0  0  0  0  0  0
  -18.8752   10.3508  -20.8720 C   0  0  0  0  0  0  0  0  0  0  0  0
  -18.4192    9.2294  -21.5727 C   0  0  0  0  0  0  0  0  0  0  0  0
  -17.0588    8.9344  -21.5979 C   0  0  0  0  0  0  0  0  0  0  0  0
  -16.6388    7.8134  -22.2044 F   0  0  0  0  0  0  0  0  0  0  0  0
 24 25  1  0  0  0
 25 22  1  0  0  0
 22 23  2  0  0  0
 22 17  1  0  0  0
 17 18  1  0  0  0
 17 21  1  0  0  0
 18 19  1  0  0  0
 19 20  1  0  0  0
 20 21  1  0  0  0
 21 16  1  0  0  0
 16 15  1  0  0  0
 15 14  1  0  0  0
 14 10  1  0  0  0
 10 11  1  0  0  0
 10 13  1  0  0  0
 11 12  2  0  0  0
 11  1  1  0  0  0
  1  2  2  0  0  0
  1  9  1  0  0  0
  2  3  1  0  0  0
  3  4  1  0  0  0
  3  8  2  0  0  0
  4  5  2  0  0  0
  5  6  1  0  0  0
  6  7  2  0  0  0
  7 26  1  0  0  0
  7  8  1  0  0  0
 26 27  1  0  0  0
 27 28  1  0  0  0
 27 33  2  0  0  0
 28 29  2  0  0  0
 29 30  1  0  0  0
 30 34  1  0  0  0
 30 31  2  0  0  0
 34 35  1  0  0  0
 34 38  1  0  0  0
 35 36  2  0  0  0
 35 37  1  0  0  0
 37 40  1  0  0  0
 37 39  1  0  0  0
 40 41  1  0  0  0
 40 46  2  0  0  0
 41 42  2  0  0  0
 42 43  1  0  0  0
 42 44  1  0  0  0
 44 45  2  0  0  0
 45 46  1  0  0  0
 46 47  1  0  0  0
 31 32  1  0  0  0
 31 33  1  0  0  0
  8  9  1  0  0  0
M  END
> <minimizedAffinity>
-7.26310

$$$$
