CHEMBL297675


 27 30  0  0  0  0  0  0  0  0999 V2000
  -28.1509   -3.0328   -8.3333 C   0  0  0  0  0  0  0  0  0  0  0  0
  -27.8655   -4.2494   -8.8202 N   0  0  0  0  0  0  0  0  0  0  0  0
  -28.1496   -5.3207   -8.0636 C   0  0  0  0  0  0  0  0  0  0  0  0
  -28.7189   -5.2360   -6.8219 C   0  0  0  0  0  0  0  0  0  0  0  0
  -29.0209   -3.9568   -6.4081 C   0  0  0  0  0  0  0  0  0  0  0  0
  -28.7096   -2.8551   -7.1304 N   0  0  0  0  0  0  0  0  0  0  0  0
  -29.7870   -3.7859   -5.2217 N   0  0  0  0  0  0  0  0  0  0  0  0
  -30.5874   -4.7475   -4.6376 C   0  0  0  0  0  0  0  0  0  0  0  0
  -31.0189   -4.2040   -3.4554 C   0  0  0  0  0  0  0  0  0  0  0  0
  -30.5880   -2.9191   -3.3327 N   0  0  0  0  0  0  0  0  0  0  0  0
  -29.9007   -2.6373   -4.4324 C   0  0  0  0  0  0  0  0  0  0  0  0
  -29.4365   -1.2775   -4.7765 C   0  0  0  0  0  0  0  0  0  0  0  0
  -28.1284   -0.8923   -4.4530 C   0  0  0  0  0  0  0  0  0  0  0  0
  -27.6551    0.3850   -4.7733 C   0  0  0  0  0  0  0  0  0  0  0  0
  -28.4798    1.2934   -5.4322 C   0  0  0  0  0  0  0  0  0  0  0  0
  -29.7914    0.9431   -5.7307 C   0  0  0  0  0  0  0  0  0  0  0  0
  -30.2725   -0.3167   -5.3691 C   0  0  0  0  0  0  0  0  0  0  0  0
  -27.8919   -1.8833   -9.0759 N   0  0  0  0  0  0  0  0  0  0  0  0
  -28.4404   -1.1025   -8.7428 H   0  0  0  0  0  0  0  0  0  0  0  0
  -25.0992   -1.6094  -11.5180 C   0  0  0  0  0  0  0  0  0  0  0  0
  -25.7927   -1.6141  -12.7280 C   0  0  0  0  0  0  0  0  0  0  0  0
  -27.1821   -1.6633  -12.7317 C   0  0  0  0  0  0  0  0  0  0  0  0
  -27.8787   -1.7187  -11.5269 C   0  0  0  0  0  0  0  0  0  0  0  0
  -27.2147   -1.7176  -10.2949 C   0  0  0  0  0  0  0  0  0  0  0  0
  -25.8134   -1.6556  -10.3114 C   0  0  0  0  0  0  0  0  0  0  0  0
  -23.0011   -1.1652  -12.5360 C   0  0  0  0  0  0  0  0  0  0  0  0
  -23.7358   -1.5794  -11.3886 O   0  0  0  0  0  0  0  0  0  0  0  0
 26 27  1  0  0  0
 27 20  1  0  0  0
 20 21  1  0  0  0
 20 25  2  0  0  0
 21 22  2  0  0  0
 22 23  1  0  0  0
 23 24  2  0  0  0
 24 18  1  0  0  0
 24 25  1  0  0  0
 18  1  1  0  0  0
 18 19  1  0  0  0
  1  2  1  0  0  0
  1  6  2  0  0  0
  2  3  2  0  0  0
  3  4  1  0  0  0
  4  5  2  0  0  0
  5  7  1  0  0  0
  5  6  1  0  0  0
  7  8  1  0  0  0
  7 11  1  0  0  0
  8  9  2  0  0  0
  9 10  1  0  0  0
 10 11  2  0  0  0
 11 12  1  0  0  0
 12 13  1  0  0  0
 12 17  2  0  0  0
 13 14  2  0  0  0
 14 15  1  0  0  0
 15 16  2  0  0  0
 16 17  1  0  0  0
M  END
> <minimizedAffinity>
-8.46534

$$$$
