CHEMBL253969


 36 38  0  0  0  0  0  0  0  0999 V2000
  -29.4369   -4.6729   -4.8080 C   0  0  0  0  0  0  0  0  0  0  0  0
  -29.3325   -6.1151   -4.8121 C   0  0  0  0  0  0  0  0  0  0  0  0
  -28.1221   -6.6297   -4.6164 N   0  0  0  0  0  0  0  0  0  0  0  0
  -27.0933   -5.4335   -4.2421 S   0  0  0  0  0  0  0  0  0  0  0  0
  -28.1642   -4.1494   -4.5878 C   0  0  0  0  0  0  0  0  0  0  0  0
  -27.7141   -2.8433   -4.4827 N   0  0  0  0  0  0  0  0  0  0  0  0
  -27.5195   -1.9280   -5.4924 C   0  0  0  0  0  0  0  0  0  0  0  0
  -27.1252   -0.7979   -5.2210 O   0  0  0  0  0  0  0  0  0  0  0  0
  -27.8971   -2.3085   -6.7444 N   0  0  0  0  0  0  0  0  0  0  0  0
  -27.6124   -2.4433   -3.5566 H   0  0  0  0  0  0  0  0  0  0  0  0
  -27.9089   -3.2987   -6.9205 H   0  0  0  0  0  0  0  0  0  0  0  0
  -27.7997   -1.4762   -7.9165 C   0  0  0  0  0  0  0  0  0  0  0  0
  -27.4348   -2.3056   -9.1490 C   0  0  0  0  0  0  0  0  0  0  0  0
  -27.3598   -1.5018  -10.4618 C   0  0  0  0  0  0  0  0  0  0  0  0
  -26.1006   -1.9161  -11.2441 C   0  0  0  0  0  0  0  0  0  0  0  0
  -25.6075   -0.9534  -12.2402 N   0  0  0  0  0  0  0  0  0  0  0  0
  -24.9356   -1.6690  -13.3461 C   0  0  0  0  0  0  0  0  0  0  0  0
  -23.4492   -1.5151  -13.0882 C   0  0  0  0  0  0  0  0  0  0  0  0
  -23.3702   -0.1060  -12.5498 C   0  0  0  0  0  0  0  0  0  0  0  0
  -24.6355    0.0203  -11.7097 C   0  0  0  0  0  0  0  0  0  0  0  0
  -31.7080   -4.2101   -4.1558 N   0  0  0  0  0  0  0  0  0  0  0  0
  -30.6617   -3.9150   -4.9950 C   0  0  0  0  0  0  0  0  0  0  0  0
  -30.8059   -3.0474   -5.8466 O   0  0  0  0  0  0  0  0  0  0  0  0
  -32.5055   -3.5898   -4.2405 H   0  0  0  0  0  0  0  0  0  0  0  0
  -31.5467   -4.6133   -3.2436 H   0  0  0  0  0  0  0  0  0  0  0  0
  -30.3418   -7.0106   -5.0207 O   0  0  0  0  0  0  0  0  0  0  0  0
  -30.7939   -6.9826   -6.3871 C   0  0  0  0  0  0  0  0  0  0  0  0
  -30.2936   -8.0550   -7.2967 C   0  0  0  0  0  0  0  0  0  0  0  0
  -30.8965   -9.2936   -7.4973 C   0  0  0  0  0  0  0  0  0  0  0  0
  -32.0009   -9.6360   -6.8209 F   0  0  0  0  0  0  0  0  0  0  0  0
  -30.3855  -10.1991   -8.4268 C   0  0  0  0  0  0  0  0  0  0  0  0
  -29.2599   -9.8607   -9.1777 C   0  0  0  0  0  0  0  0  0  0  0  0
  -28.5668  -11.0788  -10.4450 Br  0  0  0  0  0  0  0  0  0  0  0  0
  -28.6453   -8.6259   -9.0118 C   0  0  0  0  0  0  0  0  0  0  0  0
  -29.1704   -7.7434   -8.0773 C   0  0  0  0  0  0  0  0  0  0  0  0
  -28.5900   -6.5416   -7.9408 F   0  0  0  0  0  0  0  0  0  0  0  0
 21 22  1  0  0  0
 21 24  1  0  0  0
 21 25  1  0  0  0
 22 23  2  0  0  0
 22  1  1  0  0  0
  1  2  1  0  0  0
  1  5  2  0  0  0
  2 26  1  0  0  0
  2  3  2  0  0  0
 26 27  1  0  0  0
 27 28  1  0  0  0
 28 29  1  0  0  0
 28 35  2  0  0  0
 29 30  1  0  0  0
 29 31  2  0  0  0
 31 32  1  0  0  0
 32 33  1  0  0  0
 32 34  2  0  0  0
 34 35  1  0  0  0
 35 36  1  0  0  0
  3  4  1  0  0  0
  4  5  1  0  0  0
  5  6  1  0  0  0
  6  7  1  0  0  0
  6 10  1  0  0  0
  7  8  2  0  0  0
  7  9  1  0  0  0
  9 12  1  0  0  0
  9 11  1  0  0  0
 12 13  1  0  0  0
 13 14  1  0  0  0
 14 15  1  0  0  0
 15 16  1  0  0  0
 16 17  1  0  0  0
 16 20  1  0  0  0
 17 18  1  0  0  0
 18 19  1  0  0  0
 19 20  1  0  0  0
M  END
> <minimizedAffinity>
-7.97206

$$$$
