CHEMBL243908


 36 39  0  0  0  0  0  0  0  0999 V2000
  -24.8690   11.5578  -15.5635 C   0  0  0  0  0  0  0  0  0  0  0  0
  -24.0816   12.6588  -15.8742 C   0  0  0  0  0  0  0  0  0  0  0  0
  -23.2880   12.6586  -17.0178 C   0  0  0  0  0  0  0  0  0  0  0  0
  -23.2034   11.5386  -17.8522 C   0  0  0  0  0  0  0  0  0  0  0  0
  -23.9004   10.3837  -17.4677 C   0  0  0  0  0  0  0  0  0  0  0  0
  -24.7321   10.3959  -16.3294 C   0  0  0  0  0  0  0  0  0  0  0  0
  -22.4561   11.5421  -19.0623 N   0  0  0  0  0  0  0  0  0  0  0  0
  -21.0894   11.3271  -19.1591 C   0  0  0  0  0  0  0  0  0  0  0  0
  -20.3470   11.0567  -18.2209 O   0  0  0  0  0  0  0  0  0  0  0  0
  -20.6052   11.4881  -20.4538 N   0  0  0  0  0  0  0  0  0  0  0  0
  -22.9695   11.6806  -19.9206 H   0  0  0  0  0  0  0  0  0  0  0  0
  -21.0430   12.2383  -20.9681 H   0  0  0  0  0  0  0  0  0  0  0  0
  -19.2135   11.3001  -20.6840 C   0  0  0  0  0  0  0  0  0  0  0  0
  -18.3238   12.3826  -20.6259 C   0  0  0  0  0  0  0  0  0  0  0  0
  -16.9736   12.2126  -20.9390 C   0  0  0  0  0  0  0  0  0  0  0  0
  -16.5063   10.9579  -21.3248 C   0  0  0  0  0  0  0  0  0  0  0  0
  -17.3896    9.8788  -21.3688 C   0  0  0  0  0  0  0  0  0  0  0  0
  -16.7596    8.1895  -21.9430 Br  0  0  0  0  0  0  0  0  0  0  0  0
  -18.7376   10.0354  -21.0284 C   0  0  0  0  0  0  0  0  0  0  0  0
  -25.7565   11.5508  -14.5081 O   0  0  0  0  0  0  0  0  0  0  0  0
  -31.5117   11.7294  -13.7650 C   0  0  0  0  0  0  0  0  0  0  0  0
  -30.4135   12.1048  -13.1461 N   0  0  0  0  0  0  0  0  0  0  0  0
  -29.3692   11.7501  -13.9635 C   0  0  0  0  0  0  0  0  0  0  0  0
  -27.9835   11.8899  -13.7730 C   0  0  0  0  0  0  0  0  0  0  0  0
  -27.1140   11.4194  -14.7649 C   0  0  0  0  0  0  0  0  0  0  0  0
  -27.6334   10.8008  -15.9160 C   0  0  0  0  0  0  0  0  0  0  0  0
  -29.0123   10.6939  -16.1419 C   0  0  0  0  0  0  0  0  0  0  0  0
  -29.8451   11.1625  -15.1283 C   0  0  0  0  0  0  0  0  0  0  0  0
  -31.2076   11.1618  -14.9760 N   0  0  0  0  0  0  0  0  0  0  0  0
  -31.8714   10.7769  -15.6295 H   0  0  0  0  0  0  0  0  0  0  0  0
  -33.5490   10.7597  -12.9633 C   0  0  0  0  0  0  0  0  0  0  0  0
  -33.2111    9.5857  -12.9242 O   0  0  0  0  0  0  0  0  0  0  0  0
  -32.8041   11.8398  -13.3359 N   0  0  0  0  0  0  0  0  0  0  0  0
  -33.2641   12.7396  -13.2726 H   0  0  0  0  0  0  0  0  0  0  0  0
  -35.3490   10.4598  -11.5057 C   0  0  0  0  0  0  0  0  0  0  0  0
  -34.7912   11.1876  -12.6078 O   0  0  0  0  0  0  0  0  0  0  0  0
 35 36  1  0  0  0
 36 31  1  0  0  0
 31 32  2  0  0  0
 31 33  1  0  0  0
 33 21  1  0  0  0
 33 34  1  0  0  0
 21 22  2  0  0  0
 21 29  1  0  0  0
 22 23  1  0  0  0
 23 24  1  0  0  0
 23 28  2  0  0  0
 24 25  2  0  0  0
 25 20  1  0  0  0
 25 26  1  0  0  0
 20  1  1  0  0  0
  1  2  1  0  0  0
  1  6  2  0  0  0
  2  3  2  0  0  0
  3  4  1  0  0  0
  4  7  1  0  0  0
  4  5  2  0  0  0
  7  8  1  0  0  0
  7 11  1  0  0  0
  8  9  2  0  0  0
  8 10  1  0  0  0
 10 13  1  0  0  0
 10 12  1  0  0  0
 13 14  1  0  0  0
 13 19  2  0  0  0
 14 15  2  0  0  0
 15 16  1  0  0  0
 16 17  2  0  0  0
 17 18  1  0  0  0
 17 19  1  0  0  0
  5  6  1  0  0  0
 26 27  2  0  0  0
 27 28  1  0  0  0
 28 29  1  0  0  0
 29 30  1  0  0  0
M  END
> <minimizedAffinity>
-6.81884

$$$$
