CHEMBL3671567


 39 42  0  0  0  0  0  0  0  0999 V2000
  -13.4028   -2.6900  -13.8691 C   0  0  0  0  0  0  0  0  0  0  0  0
  -13.8810   -1.6927  -14.7243 C   0  0  0  0  0  0  0  0  0  0  0  0
  -13.2915   -0.4134  -14.7199 C   0  0  0  0  0  0  0  0  0  0  0  0
  -13.8108    0.6980  -15.4005 C   0  0  0  0  0  0  0  0  0  0  0  0
  -13.2198    1.9055  -15.3335 N   0  0  0  0  0  0  0  0  0  0  0  0
  -12.1330    2.0112  -14.5689 C   0  0  0  0  0  0  0  0  0  0  0  0
  -11.5833    1.0311  -13.8457 N   0  0  0  0  0  0  0  0  0  0  0  0
  -12.1683   -0.1678  -13.9147 C   0  0  0  0  0  0  0  0  0  0  0  0
  -11.6672   -1.2028  -13.1300 C   0  0  0  0  0  0  0  0  0  0  0  0
  -12.2507   -2.4741  -13.1079 C   0  0  0  0  0  0  0  0  0  0  0  0
  -15.3779   -3.7428  -12.8987 C   0  0  0  0  0  0  0  0  0  0  0  0
  -16.2472   -4.6014  -13.0155 O   0  0  0  0  0  0  0  0  0  0  0  0
  -14.2259   -3.8107  -13.6531 N   0  0  0  0  0  0  0  0  0  0  0  0
  -14.4000   -4.4040  -14.4579 H   0  0  0  0  0  0  0  0  0  0  0  0
  -15.7733   -2.7782  -10.6895 C   0  0  0  0  0  0  0  0  0  0  0  0
  -15.5338   -2.5746  -11.9906 C   0  0  0  0  0  0  0  0  0  0  0  0
  -15.0360    0.5866  -16.1130 N   0  0  0  0  0  0  0  0  0  0  0  0
  -14.8788    0.6468  -17.1164 H   0  0  0  0  0  0  0  0  0  0  0  0
  -16.2251    1.2501  -15.7245 C   0  0  0  0  0  0  0  0  0  0  0  0
  -16.5361    2.5203  -16.2314 C   0  0  0  0  0  0  0  0  0  0  0  0
  -17.7706    3.1137  -15.9669 C   0  0  0  0  0  0  0  0  0  0  0  0
  -18.6943    2.4488  -15.1640 C   0  0  0  0  0  0  0  0  0  0  0  0
  -20.4080    3.2009  -14.9022 Br  0  0  0  0  0  0  0  0  0  0  0  0
  -18.3746    1.2257  -14.5792 C   0  0  0  0  0  0  0  0  0  0  0  0
  -17.1400    0.6438  -14.8560 C   0  0  0  0  0  0  0  0  0  0  0  0
  -16.8441   -0.5480  -14.3133 F   0  0  0  0  0  0  0  0  0  0  0  0
  -11.6463   -3.3807  -12.2684 O   0  0  0  0  0  0  0  0  0  0  0  0
  -11.8939   -3.1751  -10.8701 C   0  0  0  0  0  0  0  0  0  0  0  0
  -12.1449   -4.5063  -10.1517 C   0  0  0  0  0  0  0  0  0  0  0  0
  -12.5697   -5.5471  -11.0767 N   0  0  0  0  0  0  0  0  0  0  0  0
  -13.7644   -6.2073  -10.9145 C   0  0  0  0  0  0  0  0  0  0  0  0
  -14.5760   -5.8892  -10.0443 O   0  0  0  0  0  0  0  0  0  0  0  0
  -11.9250   -5.9527  -11.7532 H   0  0  0  0  0  0  0  0  0  0  0  0
  -13.9865   -7.4338  -11.8045 C   0  0  0  0  0  0  0  0  0  0  0  0
  -12.7603   -8.3178  -11.8154 C   0  0  0  0  0  0  0  0  0  0  0  0
  -13.0127   -9.2137  -13.0187 C   0  0  0  0  0  0  0  0  0  0  0  0
  -13.8424   -8.3511  -13.9638 C   0  0  0  0  0  0  0  0  0  0  0  0
  -14.1396   -7.1022  -13.2427 N   0  0  0  0  0  0  0  0  0  0  0  0
  -15.1054   -6.8231  -13.4237 H   0  0  0  0  0  0  0  0  0  0  0  0
 15 16  2  0  0  0
 16 11  1  0  0  0
 11 12  2  0  0  0
 11 13  1  0  0  0
 13  1  1  0  0  0
 13 14  1  0  0  0
  1  2  1  0  0  0
  1 10  2  0  0  0
  2  3  2  0  0  0
  3  4  1  0  0  0
  3  8  1  0  0  0
  4 17  1  0  0  0
  4  5  2  0  0  0
 17 19  1  0  0  0
 17 18  1  0  0  0
 19 20  1  0  0  0
 19 25  2  0  0  0
 20 21  2  0  0  0
 21 22  1  0  0  0
 22 23  1  0  0  0
 22 24  2  0  0  0
 24 25  1  0  0  0
 25 26  1  0  0  0
  5  6  1  0  0  0
  6  7  2  0  0  0
  7  8  1  0  0  0
  8  9  2  0  0  0
  9 10  1  0  0  0
 10 27  1  0  0  0
 27 28  1  0  0  0
 28 29  1  0  0  0
 29 30  1  0  0  0
 30 31  1  0  0  0
 30 33  1  0  0  0
 31 32  2  0  0  0
 31 34  1  0  0  0
 34 35  1  0  0  0
 34 38  1  0  0  0
 35 36  1  0  0  0
 36 37  1  0  0  0
 37 38  1  0  0  0
 38 39  1  0  0  0
M  END
> <minimizedAffinity>
-7.77289

$$$$
