CHEMBL400569


 38 43  0  0  0  0  0  0  0  0999 V2000
  -29.4990   -6.3337   -7.2357 C   0  0  0  0  0  0  0  0  0  0  0  0
  -30.2219   -6.1834   -6.0399 C   0  0  0  0  0  0  0  0  0  0  0  0
  -30.3868   -5.0380   -5.3086 N   0  0  0  0  0  0  0  0  0  0  0  0
  -29.7873   -3.9815   -5.8887 C   0  0  0  0  0  0  0  0  0  0  0  0
  -29.7854   -2.6780   -5.4641 N   0  0  0  0  0  0  0  0  0  0  0  0
  -29.1531   -1.8212   -6.3106 N   0  0  0  0  0  0  0  0  0  0  0  0
  -28.7180   -2.6351   -7.2869 C   0  0  0  0  0  0  0  0  0  0  0  0
  -29.0578   -3.9799   -7.0558 C   0  0  0  0  0  0  0  0  0  0  0  0
  -28.8850   -5.1872   -7.7330 C   0  0  0  0  0  0  0  0  0  0  0  0
  -30.2228   -2.3171   -4.6253 H   0  0  0  0  0  0  0  0  0  0  0  0
  -28.0581   -2.1778   -8.5427 C   0  0  0  0  0  0  0  0  0  0  0  0
  -26.8125   -1.7428   -8.6247 N   0  0  0  0  0  0  0  0  0  0  0  0
  -26.5457   -1.6333   -9.9660 C   0  0  0  0  0  0  0  0  0  0  0  0
  -25.3552   -1.2750  -10.6304 C   0  0  0  0  0  0  0  0  0  0  0  0
  -25.2980   -1.2973  -12.0364 C   0  0  0  0  0  0  0  0  0  0  0  0
  -26.4716   -1.6673  -12.7251 C   0  0  0  0  0  0  0  0  0  0  0  0
  -27.6748   -2.0079  -12.0924 C   0  0  0  0  0  0  0  0  0  0  0  0
  -27.6688   -1.9751  -10.7076 C   0  0  0  0  0  0  0  0  0  0  0  0
  -28.6324   -2.2488   -9.7777 N   0  0  0  0  0  0  0  0  0  0  0  0
  -29.5776   -2.5693   -9.9481 H   0  0  0  0  0  0  0  0  0  0  0  0
  -24.1736   -0.9243  -12.7530 N   0  0  0  0  0  0  0  0  0  0  0  0
  -22.8147   -0.9630  -12.1911 C   0  0  0  0  0  0  0  0  0  0  0  0
  -22.0034    0.2437  -12.7381 C   0  0  0  0  0  0  0  0  0  0  0  0
  -21.9760    0.2980  -14.2200 N   0  0  0  0  0  0  0  0  0  0  0  0
  -21.2351    1.4669  -14.6862 C   0  0  0  0  0  0  0  0  0  0  0  0
  -23.3676    0.3257  -14.7252 C   0  0  0  0  0  0  0  0  0  0  0  0
  -24.1952   -0.8818  -14.2275 C   0  0  0  0  0  0  0  0  0  0  0  0
  -28.0911   -9.1088   -9.3928 C   0  0  0  0  0  0  0  0  0  0  0  0
  -29.1805   -9.9697   -9.3770 C   0  0  0  0  0  0  0  0  0  0  0  0
  -30.3235   -9.7191   -8.7094 N   0  0  0  0  0  0  0  0  0  0  0  0
  -30.3712   -8.5589   -8.0130 C   0  0  0  0  0  0  0  0  0  0  0  0
  -29.3529   -7.5979   -7.9677 C   0  0  0  0  0  0  0  0  0  0  0  0
  -28.2064   -7.8960   -8.6999 C   0  0  0  0  0  0  0  0  0  0  0  0
  -26.8134   -9.4678  -10.0949 C   0  0  0  0  0  0  0  0  0  0  0  0
  -26.7810   -8.8235  -11.4059 N   0  0  0  0  0  0  0  0  0  0  0  0
  -27.1441   -7.8753  -11.3319 H   0  0  0  0  0  0  0  0  0  0  0  0
  -27.0598   -9.1513  -13.7791 C   0  0  0  0  0  0  0  0  0  0  0  0
  -27.5530   -9.5538  -12.3993 C   0  0  0  0  0  0  0  0  0  0  0  0
 37 38  1  0  0  0
 38 35  1  0  0  0
 35 34  1  0  0  0
 35 36  1  0  0  0
 34 28  1  0  0  0
 28 29  1  0  0  0
 28 33  2  0  0  0
 29 30  2  0  0  0
 30 31  1  0  0  0
 31 32  2  0  0  0
 32  1  1  0  0  0
 32 33  1  0  0  0
  1  2  1  0  0  0
  1  9  2  0  0  0
  2  3  2  0  0  0
  3  4  1  0  0  0
  4  5  1  0  0  0
  4  8  2  0  0  0
  5  6  1  0  0  0
  5 10  1  0  0  0
  6  7  2  0  0  0
  7 11  1  0  0  0
  7  8  1  0  0  0
 11 12  2  0  0  0
 11 19  1  0  0  0
 12 13  1  0  0  0
 13 14  1  0  0  0
 13 18  2  0  0  0
 14 15  2  0  0  0
 15 21  1  0  0  0
 15 16  1  0  0  0
 21 22  1  0  0  0
 21 27  1  0  0  0
 22 23  1  0  0  0
 23 24  1  0  0  0
 24 25  1  0  0  0
 24 26  1  0  0  0
 26 27  1  0  0  0
 16 17  2  0  0  0
 17 18  1  0  0  0
 18 19  1  0  0  0
 19 20  1  0  0  0
  8  9  1  0  0  0
M  END
> <minimizedAffinity>
-9.65151

$$$$
