CHEMBL172450


 33 36  0  0  0  0  0  0  0  0999 V2000
  -14.4882   -5.4897  -13.0143 C   0  0  0  0  0  0  0  0  0  0  0  0
  -15.4349   -6.2837  -12.4870 N   0  0  0  0  0  0  0  0  0  0  0  0
  -16.4977   -5.6768  -11.9438 C   0  0  0  0  0  0  0  0  0  0  0  0
  -16.6611   -4.3571  -11.8037 N   0  0  0  0  0  0  0  0  0  0  0  0
  -15.6915   -3.5777  -12.2930 C   0  0  0  0  0  0  0  0  0  0  0  0
  -15.7924   -2.2050  -12.1597 C   0  0  0  0  0  0  0  0  0  0  0  0
  -14.8801   -1.2960  -12.7354 C   0  0  0  0  0  0  0  0  0  0  0  0
  -13.7883   -1.7885  -13.4605 C   0  0  0  0  0  0  0  0  0  0  0  0
  -13.6401   -3.1758  -13.5300 C   0  0  0  0  0  0  0  0  0  0  0  0
  -14.5712   -4.0864  -12.9549 C   0  0  0  0  0  0  0  0  0  0  0  0
  -13.3078   -6.0790  -13.5535 N   0  0  0  0  0  0  0  0  0  0  0  0
  -12.6348   -5.3468  -13.7581 H   0  0  0  0  0  0  0  0  0  0  0  0
  -13.7734   -7.3558  -16.9950 C   0  0  0  0  0  0  0  0  0  0  0  0
  -13.4475   -8.7028  -16.8584 C   0  0  0  0  0  0  0  0  0  0  0  0
  -13.0866   -9.2135  -15.6168 C   0  0  0  0  0  0  0  0  0  0  0  0
  -13.0287   -8.3842  -14.4988 C   0  0  0  0  0  0  0  0  0  0  0  0
  -12.7984   -9.1410  -12.9622 Cl  0  0  0  0  0  0  0  0  0  0  0  0
  -13.2533   -7.0000  -14.6389 C   0  0  0  0  0  0  0  0  0  0  0  0
  -13.6575   -6.5099  -15.8916 C   0  0  0  0  0  0  0  0  0  0  0  0
  -13.7837   -7.4036  -19.3548 C   0  0  0  0  0  0  0  0  0  0  0  0
  -14.1824   -6.7555  -18.1524 O   0  0  0  0  0  0  0  0  0  0  0  0
  -12.9689   -1.1391  -14.3459 O   0  0  0  0  0  0  0  0  0  0  0  0
  -11.8570   -0.3743  -13.8954 C   0  0  0  0  0  0  0  0  0  0  0  0
  -15.2843   -0.0146  -12.4839 O   0  0  0  0  0  0  0  0  0  0  0  0
  -15.5802    0.7962  -13.5928 C   0  0  0  0  0  0  0  0  0  0  0  0
  -16.8846    0.3988  -14.2617 C   0  0  0  0  0  0  0  0  0  0  0  0
  -17.7570    1.6571  -14.2394 C   0  0  0  0  0  0  0  0  0  0  0  0
  -18.6894    1.8171  -15.3532 N   0  0  0  0  0  0  0  0  0  0  0  0
  -19.3421    3.1461  -15.3817 C   0  0  0  0  0  0  0  0  0  0  0  0
  -20.3632    3.3871  -14.2534 C   0  0  0  0  0  0  0  0  0  0  0  0
  -21.3438    2.3447  -14.1755 O   0  0  0  0  0  0  0  0  0  0  0  0
  -20.7338    1.0540  -14.0729 C   0  0  0  0  0  0  0  0  0  0  0  0
  -19.7708    0.7996  -15.2433 C   0  0  0  0  0  0  0  0  0  0  0  0
 20 21  1  0  0  0
 21 13  1  0  0  0
 13 14  1  0  0  0
 13 19  2  0  0  0
 14 15  2  0  0  0
 15 16  1  0  0  0
 16 17  1  0  0  0
 16 18  2  0  0  0
 18 11  1  0  0  0
 18 19  1  0  0  0
 11  1  1  0  0  0
 11 12  1  0  0  0
  1  2  1  0  0  0
  1 10  2  0  0  0
  2  3  2  0  0  0
  3  4  1  0  0  0
  4  5  2  0  0  0
  5  6  1  0  0  0
  5 10  1  0  0  0
  6  7  2  0  0  0
  7 24  1  0  0  0
  7  8  1  0  0  0
 24 25  1  0  0  0
 25 26  1  0  0  0
 26 27  1  0  0  0
 27 28  1  0  0  0
 28 29  1  0  0  0
 28 33  1  0  0  0
 29 30  1  0  0  0
 30 31  1  0  0  0
 31 32  1  0  0  0
 32 33  1  0  0  0
  8 22  1  0  0  0
  8  9  2  0  0  0
 22 23  1  0  0  0
  9 10  1  0  0  0
M  END
> <minimizedAffinity>
-7.12862

$$$$
