CHEMBL1973483


 30 32  0  0  0  0  0  0  0  0999 V2000
  -15.4281   -1.1071  -11.9520 O   0  0  0  0  0  0  0  0  0  0  0  0
  -15.3577   -0.6675  -13.0968 C   0  0  0  0  0  0  0  0  0  0  0  0
  -14.8187   -1.3473  -14.1533 N   0  0  0  0  0  0  0  0  0  0  0  0
  -15.7340    0.6355  -13.3115 N   0  0  0  0  0  0  0  0  0  0  0  0
  -14.2226   -0.8073  -14.7635 H   0  0  0  0  0  0  0  0  0  0  0  0
  -15.6993    1.1525  -12.4436 H   0  0  0  0  0  0  0  0  0  0  0  0
  -15.8708    1.3700  -14.5062 C   0  0  0  0  0  0  0  0  0  0  0  0
  -14.8430    2.1679  -15.0055 C   0  0  0  0  0  0  0  0  0  0  0  0
  -15.1542    3.1099  -15.9629 C   0  0  0  0  0  0  0  0  0  0  0  0
  -16.4148    3.3764  -16.3501 N   0  0  0  0  0  0  0  0  0  0  0  0
  -17.3834    2.5666  -15.9000 C   0  0  0  0  0  0  0  0  0  0  0  0
  -18.7148    2.9605  -16.0209 C   0  0  0  0  0  0  0  0  0  0  0  0
  -19.7029    2.1803  -15.4066 C   0  0  0  0  0  0  0  0  0  0  0  0
  -19.4689    0.8212  -15.2367 C   0  0  0  0  0  0  0  0  0  0  0  0
  -18.1598    0.4706  -14.9679 C   0  0  0  0  0  0  0  0  0  0  0  0
  -17.1218    1.4234  -15.1474 C   0  0  0  0  0  0  0  0  0  0  0  0
  -20.5875    2.8284  -14.3476 C   0  0  0  0  0  0  0  0  0  0  0  0
  -21.1486    1.9043  -13.5172 F   0  0  0  0  0  0  0  0  0  0  0  0
  -19.9547    3.7335  -13.5567 F   0  0  0  0  0  0  0  0  0  0  0  0
  -21.6502    3.4846  -14.9066 F   0  0  0  0  0  0  0  0  0  0  0  0
  -14.4402   -2.6926  -14.1022 C   0  0  0  0  0  0  0  0  0  0  0  0
  -13.1857   -3.1249  -14.5213 C   0  0  0  0  0  0  0  0  0  0  0  0
  -12.8702   -4.4745  -14.4062 C   0  0  0  0  0  0  0  0  0  0  0  0
  -13.8255   -5.3653  -13.9289 C   0  0  0  0  0  0  0  0  0  0  0  0
  -15.0690   -4.8677  -13.5313 C   0  0  0  0  0  0  0  0  0  0  0  0
  -15.3565   -3.5238  -13.5681 N   0  0  0  0  0  0  0  0  0  0  0  0
  -16.1573   -5.8353  -13.0804 C   0  0  0  0  0  0  0  0  0  0  0  0
  -16.1543   -6.0581  -11.7310 F   0  0  0  0  0  0  0  0  0  0  0  0
  -17.4179   -5.4063  -13.3726 F   0  0  0  0  0  0  0  0  0  0  0  0
  -16.0364   -7.0697  -13.6477 F   0  0  0  0  0  0  0  0  0  0  0  0
  1  2  2  0  0  0
  2  3  1  0  0  0
  2  4  1  0  0  0
  3 21  1  0  0  0
  3  5  1  0  0  0
 21 22  1  0  0  0
 21 26  2  0  0  0
 22 23  2  0  0  0
 23 24  1  0  0  0
 24 25  2  0  0  0
 25 27  1  0  0  0
 25 26  1  0  0  0
 27 28  1  0  0  0
 27 29  1  0  0  0
 27 30  1  0  0  0
  4  7  1  0  0  0
  4  6  1  0  0  0
  7  8  1  0  0  0
  7 16  2  0  0  0
  8  9  2  0  0  0
  9 10  1  0  0  0
 10 11  2  0  0  0
 11 12  1  0  0  0
 11 16  1  0  0  0
 12 13  2  0  0  0
 13 17  1  0  0  0
 13 14  1  0  0  0
 17 18  1  0  0  0
 17 19  1  0  0  0
 17 20  1  0  0  0
 14 15  2  0  0  0
 15 16  1  0  0  0
M  END
> <minimizedAffinity>
-9.10326

$$$$
