CHEMBL2086756


 39 44  0  0  0  0  0  0  0  0999 V2000
  -13.1957    4.3494  -16.0411 C   0  0  0  0  0  0  0  0  0  0  0  0
  -11.8031    4.1512  -16.0340 C   0  0  0  0  0  0  0  0  0  0  0  0
  -11.2368    3.0174  -15.4507 C   0  0  0  0  0  0  0  0  0  0  0  0
  -12.0958    2.0885  -14.9008 C   0  0  0  0  0  0  0  0  0  0  0  0
  -13.4874    2.2172  -14.9269 C   0  0  0  0  0  0  0  0  0  0  0  0
  -14.0386    3.3449  -15.5189 C   0  0  0  0  0  0  0  0  0  0  0  0
  -14.0275    1.0271  -14.2208 C   0  0  0  0  0  0  0  0  0  0  0  0
  -15.3024    0.6158  -14.0224 C   0  0  0  0  0  0  0  0  0  0  0  0
  -12.8091    0.2562  -13.7303 C   0  0  0  0  0  0  0  0  0  0  0  0
  -12.7531   -0.7092  -12.9948 O   0  0  0  0  0  0  0  0  0  0  0  0
  -11.7155    0.9388  -14.2274 N   0  0  0  0  0  0  0  0  0  0  0  0
  -10.7688    0.6486  -14.0374 H   0  0  0  0  0  0  0  0  0  0  0  0
  -15.5532   -0.6362  -13.3793 C   0  0  0  0  0  0  0  0  0  0  0  0
  -15.5795   -0.9443  -12.0984 N   0  0  0  0  0  0  0  0  0  0  0  0
  -15.8412   -2.2937  -12.0496 C   0  0  0  0  0  0  0  0  0  0  0  0
  -16.0204   -3.1326  -10.9412 C   0  0  0  0  0  0  0  0  0  0  0  0
  -16.2786   -4.4933  -11.1593 C   0  0  0  0  0  0  0  0  0  0  0  0
  -16.3434   -5.0081  -12.4572 C   0  0  0  0  0  0  0  0  0  0  0  0
  -16.1610   -4.1885  -13.5777 C   0  0  0  0  0  0  0  0  0  0  0  0
  -15.9217   -2.8343  -13.3278 C   0  0  0  0  0  0  0  0  0  0  0  0
  -15.7285   -1.7580  -14.1569 N   0  0  0  0  0  0  0  0  0  0  0  0
  -15.7395   -1.7816  -15.1640 H   0  0  0  0  0  0  0  0  0  0  0  0
  -16.4542    1.3733  -14.5592 C   0  0  0  0  0  0  0  0  0  0  0  0
  -16.3403    2.0356  -15.7917 C   0  0  0  0  0  0  0  0  0  0  0  0
  -17.4356    2.7085  -16.3386 C   0  0  0  0  0  0  0  0  0  0  0  0
  -18.6539    2.7138  -15.6621 C   0  0  0  0  0  0  0  0  0  0  0  0
  -18.7661    2.0470  -14.4467 C   0  0  0  0  0  0  0  0  0  0  0  0
  -19.9422    2.0419  -13.8054 F   0  0  0  0  0  0  0  0  0  0  0  0
  -17.6822    1.3775  -13.8878 C   0  0  0  0  0  0  0  0  0  0  0  0
  -13.8039    5.4734  -16.6132 N   0  0  0  0  0  0  0  0  0  0  0  0
  -14.1262    6.0965  -15.8729 H   0  0  0  0  0  0  0  0  0  0  0  0
  -13.1245    5.6759  -20.1159 N   0  0  0  0  0  0  0  0  0  0  0  0
  -13.1378    4.4179  -19.3485 C   0  0  0  0  0  0  0  0  0  0  0  0
  -14.4692    4.1774  -18.6405 C   0  0  0  0  0  0  0  0  0  0  0  0
  -14.8044    5.3286  -17.6908 C   0  0  0  0  0  0  0  0  0  0  0  0
  -14.8395    6.6102  -18.5284 C   0  0  0  0  0  0  0  0  0  0  0  0
  -13.5227    6.8254  -19.2791 C   0  0  0  0  0  0  0  0  0  0  0  0
  -10.6965    6.1240  -19.6067 C   0  0  0  0  0  0  0  0  0  0  0  0
  -11.7775    5.9380  -20.6666 C   0  0  0  0  0  0  0  0  0  0  0  0
 38 39  1  0  0  0
 39 32  1  0  0  0
 32 33  1  0  0  0
 32 37  1  0  0  0
 33 34  1  0  0  0
 34 35  1  0  0  0
 35 30  1  0  0  0
 35 36  1  0  0  0
 30  1  1  0  0  0
 30 31  1  0  0  0
  1  2  1  0  0  0
  1  6  2  0  0  0
  2  3  2  0  0  0
  3  4  1  0  0  0
  4  5  2  0  0  0
  4 11  1  0  0  0
  5  6  1  0  0  0
  5  7  1  0  0  0
  7  8  2  0  0  0
  7  9  1  0  0  0
  8 23  1  0  0  0
  8 13  1  0  0  0
 23 24  1  0  0  0
 23 29  2  0  0  0
 24 25  2  0  0  0
 25 26  1  0  0  0
 26 27  2  0  0  0
 27 28  1  0  0  0
 27 29  1  0  0  0
 13 14  2  0  0  0
 13 21  1  0  0  0
 14 15  1  0  0  0
 15 16  1  0  0  0
 15 20  2  0  0  0
 16 17  2  0  0  0
 17 18  1  0  0  0
 18 19  2  0  0  0
 19 20  1  0  0  0
 20 21  1  0  0  0
 21 22  1  0  0  0
  9 10  2  0  0  0
  9 11  1  0  0  0
 11 12  1  0  0  0
 36 37  1  0  0  0
M  END
> <minimizedAffinity>
-9.45348

$$$$
