CHEMBL426047


 35 38  0  0  0  0  0  0  0  0999 V2000
  -29.6143   -6.2272   -3.6728 C   0  0  0  0  0  0  0  0  0  0  0  0
  -28.5508   -5.3534   -3.5043 C   0  0  0  0  0  0  0  0  0  0  0  0
  -28.7534   -3.9453   -3.6104 C   0  0  0  0  0  0  0  0  0  0  0  0
  -29.9859   -3.3284   -3.9861 C   0  0  0  0  0  0  0  0  0  0  0  0
  -31.0397   -4.2256   -4.1488 C   0  0  0  0  0  0  0  0  0  0  0  0
  -30.8589   -5.6552   -3.9702 C   0  0  0  0  0  0  0  0  0  0  0  0
  -29.3067   -8.0880   -5.9025 N   0  0  0  0  0  0  0  0  0  0  0  0
  -29.2723   -8.5554   -4.6016 C   0  0  0  0  0  0  0  0  0  0  0  0
  -29.1821   -9.7367   -4.2605 O   0  0  0  0  0  0  0  0  0  0  0  0
  -29.4060   -7.6256   -3.5876 N   0  0  0  0  0  0  0  0  0  0  0  0
  -29.3204   -7.0882   -6.0333 H   0  0  0  0  0  0  0  0  0  0  0  0
  -29.6154   -8.0990   -2.7085 H   0  0  0  0  0  0  0  0  0  0  0  0
  -30.5307   -9.0527   -7.8573 C   0  0  0  0  0  0  0  0  0  0  0  0
  -30.5123   -9.9314   -8.9590 C   0  0  0  0  0  0  0  0  0  0  0  0
  -29.3751  -10.6331   -9.3235 C   0  0  0  0  0  0  0  0  0  0  0  0
  -28.2095  -10.4385   -8.6201 C   0  0  0  0  0  0  0  0  0  0  0  0
  -28.1928   -9.5595   -7.5346 C   0  0  0  0  0  0  0  0  0  0  0  0
  -29.3448   -8.8769   -7.0984 C   0  0  0  0  0  0  0  0  0  0  0  0
  -32.8169   -9.1454   -7.2628 C   0  0  0  0  0  0  0  0  0  0  0  0
  -31.6721   -8.3288   -7.5767 O   0  0  0  0  0  0  0  0  0  0  0  0
  -29.8212   -1.9956   -4.3386 O   0  0  0  0  0  0  0  0  0  0  0  0
  -28.9855   -1.0650   -5.0009 C   0  0  0  0  0  0  0  0  0  0  0  0
  -29.0818    0.5944   -5.0767 C   0  0  0  0  0  0  0  0  0  0  0  0
  -28.7388    1.4254   -6.1294 C   0  0  0  0  0  0  0  0  0  0  0  0
  -28.4895    0.2948   -6.6302 N   0  0  0  0  0  0  0  0  0  0  0  0
  -28.2289   -0.8149   -7.2079 C   0  0  0  0  0  0  0  0  0  0  0  0
  -27.9233   -0.8160   -8.5113 C   0  0  0  0  0  0  0  0  0  0  0  0
  -27.5809   -2.0056   -9.0397 C   0  0  0  0  0  0  0  0  0  0  0  0
  -27.7911   -3.1651   -8.2540 C   0  0  0  0  0  0  0  0  0  0  0  0
  -28.2089   -3.0574   -6.8748 C   0  0  0  0  0  0  0  0  0  0  0  0
  -28.4405   -1.7625   -6.2734 C   0  0  0  0  0  0  0  0  0  0  0  0
  -27.0781   -1.9902  -10.3086 O   0  0  0  0  0  0  0  0  0  0  0  0
  -27.8395   -1.2094  -11.2398 C   0  0  0  0  0  0  0  0  0  0  0  0
  -27.5853   -4.4356   -8.7326 O   0  0  0  0  0  0  0  0  0  0  0  0
  -28.3183   -5.4387   -8.0013 C   0  0  0  0  0  0  0  0  0  0  0  0
 19 20  1  0  0  0
 20 13  1  0  0  0
 13 14  1  0  0  0
 13 18  2  0  0  0
 14 15  2  0  0  0
 15 16  1  0  0  0
 16 17  2  0  0  0
 17 18  1  0  0  0
 18  7  1  0  0  0
  7  8  1  0  0  0
  7 11  1  0  0  0
  8  9  2  0  0  0
  8 10  1  0  0  0
 10  1  1  0  0  0
 10 12  1  0  0  0
  1  2  1  0  0  0
  1  6  2  0  0  0
  2  3  2  0  0  0
  3  4  1  0  0  0
  4 21  1  0  0  0
  4  5  2  0  0  0
 21 22  1  0  0  0
 22 23  1  0  0  0
 22 31  2  0  0  0
 23 24  2  0  0  0
 24 25  1  0  0  0
 25 26  2  0  0  0
 26 27  1  0  0  0
 26 31  1  0  0  0
 27 28  2  0  0  0
 28 32  1  0  0  0
 28 29  1  0  0  0
 32 33  1  0  0  0
 29 34  1  0  0  0
 29 30  2  0  0  0
 34 35  1  0  0  0
 30 31  1  0  0  0
  5  6  1  0  0  0
M  END
> <minimizedAffinity>
-8.37429

$$$$
