CHEMBL246165


 24 26  0  0  0  0  0  0  0  0999 V2000
  -17.6337    2.1369  -15.3402 C   0  0  0  0  0  0  0  0  0  0  0  0
  -17.2107    3.0765  -16.2040 N   0  0  0  0  0  0  0  0  0  0  0  0
  -15.9123    2.7794  -16.3837 N   0  0  0  0  0  0  0  0  0  0  0  0
  -15.4995    1.6739  -15.6995 C   0  0  0  0  0  0  0  0  0  0  0  0
  -16.6008    1.2182  -15.0110 C   0  0  0  0  0  0  0  0  0  0  0  0
  -15.3621    3.3711  -16.9986 H   0  0  0  0  0  0  0  0  0  0  0  0
  -21.0147    1.5472  -14.1464 C   0  0  0  0  0  0  0  0  0  0  0  0
  -20.9976    2.9325  -14.1672 C   0  0  0  0  0  0  0  0  0  0  0  0
  -19.7441    3.2804  -14.5856 N   0  0  0  0  0  0  0  0  0  0  0  0
  -19.0493    2.1309  -14.8545 C   0  0  0  0  0  0  0  0  0  0  0  0
  -19.7945    1.0720  -14.6136 N   0  0  0  0  0  0  0  0  0  0  0  0
  -19.3574    4.2081  -14.6999 H   0  0  0  0  0  0  0  0  0  0  0  0
  -23.3344    1.2235  -13.7561 F   0  0  0  0  0  0  0  0  0  0  0  0
  -22.1123    0.6257  -13.6979 C   0  0  0  0  0  0  0  0  0  0  0  0
  -21.9454    0.2183  -12.4118 F   0  0  0  0  0  0  0  0  0  0  0  0
  -22.1939   -0.4954  -14.4621 F   0  0  0  0  0  0  0  0  0  0  0  0
  -16.6809    0.0504  -14.1931 C   0  0  0  0  0  0  0  0  0  0  0  0
  -15.6487   -0.6594  -13.7090 C   0  0  0  0  0  0  0  0  0  0  0  0
  -15.8025   -1.9076  -12.9471 C   0  0  0  0  0  0  0  0  0  0  0  0
  -15.7282   -1.9651  -11.5516 C   0  0  0  0  0  0  0  0  0  0  0  0
  -15.9432   -3.1720  -10.8896 C   0  0  0  0  0  0  0  0  0  0  0  0
  -16.2421   -4.2922  -11.6465 C   0  0  0  0  0  0  0  0  0  0  0  0
  -16.3393   -4.2819  -12.9923 N   0  0  0  0  0  0  0  0  0  0  0  0
  -16.1208   -3.0932  -13.6062 C   0  0  0  0  0  0  0  0  0  0  0  0
 13 14  1  0  0  0
 14 15  1  0  0  0
 14 16  1  0  0  0
 14  7  1  0  0  0
  7  8  2  0  0  0
  7 11  1  0  0  0
  8  9  1  0  0  0
  9 10  1  0  0  0
  9 12  1  0  0  0
 10  1  1  0  0  0
 10 11  2  0  0  0
  1  2  2  0  0  0
  1  5  1  0  0  0
  2  3  1  0  0  0
  3  4  1  0  0  0
  3  6  1  0  0  0
  4  5  2  0  0  0
  5 17  1  0  0  0
 17 18  2  0  0  0
 18 19  1  0  0  0
 19 20  1  0  0  0
 19 24  2  0  0  0
 20 21  2  0  0  0
 21 22  1  0  0  0
 22 23  2  0  0  0
 23 24  1  0  0  0
M  END
> <minimizedAffinity>
-8.33360

$$$$
