CHEMBL3951728


 37 41  0  0  0  0  0  0  0  0999 V2000
  -29.0789   -3.0210   -7.9598 N   0  0  0  0  0  0  0  0  0  0  0  0
  -28.0279   -2.4904   -8.9333 C   0  0  0  0  0  0  0  0  0  0  0  0
  -28.6672   -1.7732   -9.9591 C   0  0  0  0  0  0  0  0  0  0  0  0
  -28.1435   -1.2923  -11.0145 C   0  0  0  0  0  0  0  0  0  0  0  0
  -26.8677   -1.3706  -11.2398 C   0  0  0  0  0  0  0  0  0  0  0  0
  -26.6514   -1.0776  -12.4913 N   0  0  0  0  0  0  0  0  0  0  0  0
  -25.4883   -0.9347  -12.9957 C   0  0  0  0  0  0  0  0  0  0  0  0
  -24.4202   -0.7429  -12.1563 C   0  0  0  0  0  0  0  0  0  0  0  0
  -24.5551   -1.3536  -10.8452 N   0  0  0  0  0  0  0  0  0  0  0  0
  -25.8568   -1.7644  -10.3560 C   0  0  0  0  0  0  0  0  0  0  0  0
  -26.4927   -2.4817   -9.1170 C   0  0  0  0  0  0  0  0  0  0  0  0
  -23.4651    0.2365  -12.9954 C   0  0  0  0  0  0  0  0  0  0  0  0
  -22.4562   -0.4103  -13.7859 C   0  0  0  0  0  0  0  0  0  0  0  0
  -21.6832    0.4370  -14.4352 N   0  0  0  0  0  0  0  0  0  0  0  0
  -22.1124    1.6491  -14.1866 N   0  0  0  0  0  0  0  0  0  0  0  0
  -21.3763    2.7405  -14.8331 C   0  0  0  0  0  0  0  0  0  0  0  0
  -23.2094    1.6031  -13.3388 C   0  0  0  0  0  0  0  0  0  0  0  0
  -29.8543   -3.1921   -4.2282 C   0  0  0  0  0  0  0  0  0  0  0  0
  -29.2248   -2.0200   -3.7763 C   0  0  0  0  0  0  0  0  0  0  0  0
  -28.7200   -1.1006   -4.6849 C   0  0  0  0  0  0  0  0  0  0  0  0
  -28.8878   -1.3771   -6.0240 C   0  0  0  0  0  0  0  0  0  0  0  0
  -29.3157   -2.6505   -6.5445 C   0  0  0  0  0  0  0  0  0  0  0  0
  -29.8517   -3.5284   -5.6040 C   0  0  0  0  0  0  0  0  0  0  0  0
  -31.7670   -4.4027   -3.4044 C   0  0  0  0  0  0  0  0  0  0  0  0
  -30.4326   -4.0394   -3.3518 O   0  0  0  0  0  0  0  0  0  0  0  0
  -28.0216   -0.0017   -4.2704 O   0  0  0  0  0  0  0  0  0  0  0  0
  -28.0575    1.2410   -4.8984 C   0  0  0  0  0  0  0  0  0  0  0  0
  -29.5493   -4.4243   -8.2798 C   0  0  0  0  0  0  0  0  0  0  0  0
  -29.3091   -5.8037   -7.5929 C   0  0  0  0  0  0  0  0  0  0  0  0
  -30.3991   -6.7491   -7.3478 N   0  0  0  0  0  0  0  0  0  0  0  0
  -30.5744   -6.8764   -5.8826 C   0  0  0  0  0  0  0  0  0  0  0  0
  -29.5152   -7.8036   -5.1876 C   0  0  0  0  0  0  0  0  0  0  0  0
  -28.0470   -7.3394   -4.8801 C   0  0  0  0  0  0  0  0  0  0  0  0
  -29.5196   -9.0931   -5.7673 O   0  0  0  0  0  0  0  0  0  0  0  0
  -29.3827   -9.0962   -7.1858 C   0  0  0  0  0  0  0  0  0  0  0  0
  -27.9233   -9.0170   -7.6535 C   0  0  0  0  0  0  0  0  0  0  0  0
  -30.3512   -8.1226   -7.9154 C   0  0  0  0  0  0  0  0  0  0  0  0
 24 25  1  0  0  0
 25 18  1  0  0  0
 18 19  1  0  0  0
 18 23  2  0  0  0
 19 20  2  0  0  0
 20 26  1  0  0  0
 20 21  1  0  0  0
 26 27  1  0  0  0
 21 22  2  0  0  0
 22  1  1  0  0  0
 22 23  1  0  0  0
  1 28  1  0  0  0
  1  2  1  0  0  0
 28 29  1  0  0  0
 29 30  1  0  0  0
 30 31  1  0  0  0
 30 37  1  0  0  0
 31 32  1  0  0  0
 32 34  1  0  0  0
 32 33  1  0  0  0
 34 35  1  0  0  0
 35 37  1  0  0  0
 35 36  1  0  0  0
  2  3  1  0  0  0
  2 11  2  0  0  0
  3  4  2  0  0  0
  4  5  1  0  0  0
  5  6  1  0  0  0
  5 10  2  0  0  0
  6  7  2  0  0  0
  7  8  1  0  0  0
  8 12  1  0  0  0
  8  9  2  0  0  0
 12 13  1  0  0  0
 12 17  2  0  0  0
 13 14  2  0  0  0
 14 15  1  0  0  0
 15 16  1  0  0  0
 15 17  1  0  0  0
  9 10  1  0  0  0
 10 11  1  0  0  0
M  END
> <minimizedAffinity>
-6.90356

$$$$
