CHEMBL386637


 41 44  0  0  0  0  0  0  0  0999 V2000
  -28.9294   -7.1937   -6.6454 N   0  0  0  0  0  0  0  0  0  0  0  0
  -29.7186   -6.1524   -6.1648 C   0  0  0  0  0  0  0  0  0  0  0  0
  -30.7810   -6.2842   -5.5650 O   0  0  0  0  0  0  0  0  0  0  0  0
  -27.9369   -7.0018   -6.5732 H   0  0  0  0  0  0  0  0  0  0  0  0
  -29.1628   -4.7757   -6.3586 C   0  0  0  0  0  0  0  0  0  0  0  0
  -28.6341   -4.3862   -7.6077 C   0  0  0  0  0  0  0  0  0  0  0  0
  -28.1081   -3.0912   -7.7780 C   0  0  0  0  0  0  0  0  0  0  0  0
  -28.1117   -2.1927   -6.7047 C   0  0  0  0  0  0  0  0  0  0  0  0
  -28.6235   -2.5792   -5.4749 C   0  0  0  0  0  0  0  0  0  0  0  0
  -29.1385   -3.8608   -5.3052 C   0  0  0  0  0  0  0  0  0  0  0  0
  -29.6287   -4.1760   -4.1000 F   0  0  0  0  0  0  0  0  0  0  0  0
  -27.5697   -2.6691   -9.0397 C   0  0  0  0  0  0  0  0  0  0  0  0
  -27.0868   -2.3419  -10.0920 C   0  0  0  0  0  0  0  0  0  0  0  0
  -26.5396   -1.9711  -11.3585 C   0  0  0  0  0  0  0  0  0  0  0  0
  -25.2207   -1.6017  -11.5002 C   0  0  0  0  0  0  0  0  0  0  0  0
  -24.6554   -1.2729  -12.6823 N   0  0  0  0  0  0  0  0  0  0  0  0
  -25.4420   -1.3331  -13.7603 C   0  0  0  0  0  0  0  0  0  0  0  0
  -24.8763   -1.0299  -14.9759 N   0  0  0  0  0  0  0  0  0  0  0  0
  -26.7454   -1.6408  -13.7336 N   0  0  0  0  0  0  0  0  0  0  0  0
  -27.2664   -1.9650  -12.5264 C   0  0  0  0  0  0  0  0  0  0  0  0
  -24.0658   -0.4469  -14.8456 H   0  0  0  0  0  0  0  0  0  0  0  0
  -25.5886   -0.7102  -15.6249 H   0  0  0  0  0  0  0  0  0  0  0  0
  -28.3743   -9.5301   -5.9975 C   0  0  0  0  0  0  0  0  0  0  0  0
  -28.8682  -10.8519   -5.9441 C   0  0  0  0  0  0  0  0  0  0  0  0
  -30.1635  -11.1993   -6.3161 C   0  0  0  0  0  0  0  0  0  0  0  0
  -31.0608  -10.2130   -6.7212 C   0  0  0  0  0  0  0  0  0  0  0  0
  -30.6286   -8.8801   -6.7360 C   0  0  0  0  0  0  0  0  0  0  0  0
  -29.2950   -8.5452   -6.4369 C   0  0  0  0  0  0  0  0  0  0  0  0
  -24.9187  -10.5153   -5.7132 C   0  0  0  0  0  0  0  0  0  0  0  0
  -24.6519  -10.0331   -4.2649 C   0  0  0  0  0  0  0  0  0  0  0  0
  -25.8782   -9.5477   -3.5033 C   0  0  0  0  0  0  0  0  0  0  0  0
  -26.7738   -8.6443   -4.3299 C   0  0  0  0  0  0  0  0  0  0  0  0
  -27.0637   -9.2899   -5.6083 N   0  0  0  0  0  0  0  0  0  0  0  0
  -25.8858   -9.5444   -6.4543 C   0  0  0  0  0  0  0  0  0  0  0  0
  -23.9408  -11.7557   -7.5743 C   0  0  0  0  0  0  0  0  0  0  0  0
  -23.6655  -10.8430   -6.4588 N   0  0  0  0  0  0  0  0  0  0  0  0
  -22.5945  -11.3991   -5.6322 C   0  0  0  0  0  0  0  0  0  0  0  0
  -32.4463  -10.5742   -7.1780 C   0  0  0  0  0  0  0  0  0  0  0  0
  -32.4681  -11.4898   -8.1869 F   0  0  0  0  0  0  0  0  0  0  0  0
  -33.2033  -11.1045   -6.1781 F   0  0  0  0  0  0  0  0  0  0  0  0
  -33.1393   -9.4967   -7.6402 F   0  0  0  0  0  0  0  0  0  0  0  0
 35 36  1  0  0  0
 36 37  1  0  0  0
 29 30  1  0  0  0
 29 34  1  0  0  0
 29 36  1  0  0  0
 30 31  1  0  0  0
 31 32  1  0  0  0
 32 33  1  0  0  0
 33 23  1  0  0  0
 33 34  1  0  0  0
 23 24  1  0  0  0
 23 28  2  0  0  0
 24 25  2  0  0  0
 25 26  1  0  0  0
 26 38  1  0  0  0
 26 27  2  0  0  0
 38 39  1  0  0  0
 38 40  1  0  0  0
 38 41  1  0  0  0
 27 28  1  0  0  0
 28  1  1  0  0  0
  1  2  1  0  0  0
  1  4  1  0  0  0
  2  3  2  0  0  0
  2  5  1  0  0  0
  5  6  1  0  0  0
  5 10  2  0  0  0
  6  7  2  0  0  0
  7 12  1  0  0  0
  7  8  1  0  0  0
 12 13  3  0  0  0
 13 14  1  0  0  0
 14 15  1  0  0  0
 14 20  2  0  0  0
 15 16  2  0  0  0
 16 17  1  0  0  0
 17 18  1  0  0  0
 17 19  2  0  0  0
 18 21  1  0  0  0
 18 22  1  0  0  0
 19 20  1  0  0  0
  8  9  2  0  0  0
  9 10  1  0  0  0
 10 11  1  0  0  0
M  END
> <minimizedAffinity>
-9.02557

$$$$
