CHEMBL2348994


 35 39  0  0  0  0  0  0  0  0999 V2000
  -26.4364   -2.0959  -11.6275 C   0  0  0  0  0  0  0  0  0  0  0  0
  -27.3265   -1.8007  -12.6632 C   0  0  0  0  0  0  0  0  0  0  0  0
  -26.8702   -1.4899  -13.9421 C   0  0  0  0  0  0  0  0  0  0  0  0
  -25.5017   -1.4359  -14.2161 C   0  0  0  0  0  0  0  0  0  0  0  0
  -25.0772   -1.2030  -15.6365 C   0  0  0  0  0  0  0  0  0  0  0  0
  -24.6079   -1.5999  -13.1467 C   0  0  0  0  0  0  0  0  0  0  0  0
  -25.0679   -1.9427  -11.8600 C   0  0  0  0  0  0  0  0  0  0  0  0
  -27.7353   -1.8812   -9.5244 C   0  0  0  0  0  0  0  0  0  0  0  0
  -28.2327   -0.8017   -9.8442 O   0  0  0  0  0  0  0  0  0  0  0  0
  -26.8795   -2.5822  -10.3695 N   0  0  0  0  0  0  0  0  0  0  0  0
  -26.7071   -3.5571  -10.1625 H   0  0  0  0  0  0  0  0  0  0  0  0
  -29.0636   -4.9419   -5.6693 C   0  0  0  0  0  0  0  0  0  0  0  0
  -28.6410   -3.8213   -6.5463 C   0  0  0  0  0  0  0  0  0  0  0  0
  -28.4573   -3.8000   -7.9462 C   0  0  0  0  0  0  0  0  0  0  0  0
  -28.0649   -2.5037   -8.2604 C   0  0  0  0  0  0  0  0  0  0  0  0
  -28.0238   -1.8519   -7.0406 N   0  0  0  0  0  0  0  0  0  0  0  0
  -27.6654   -0.4921   -6.7172 C   0  0  0  0  0  0  0  0  0  0  0  0
  -28.3742   -2.6363   -6.0014 N   0  0  0  0  0  0  0  0  0  0  0  0
  -23.2156   -1.5958  -13.4239 O   0  0  0  0  0  0  0  0  0  0  0  0
  -22.5346   -0.4057  -13.6624 C   0  0  0  0  0  0  0  0  0  0  0  0
  -23.4038    0.7120  -13.2131 C   0  0  0  0  0  0  0  0  0  0  0  0
  -22.9688    1.9506  -13.4888 C   0  0  0  0  0  0  0  0  0  0  0  0
  -21.7108    2.1188  -14.1042 C   0  0  0  0  0  0  0  0  0  0  0  0
  -21.0676    3.2028  -14.4718 N   0  0  0  0  0  0  0  0  0  0  0  0
  -19.8718    2.7740  -14.9677 C   0  0  0  0  0  0  0  0  0  0  0  0
  -19.7826    1.4006  -14.9119 C   0  0  0  0  0  0  0  0  0  0  0  0
  -20.9768    0.9784  -14.3845 N   0  0  0  0  0  0  0  0  0  0  0  0
  -21.3636   -0.3220  -14.2083 N   0  0  0  0  0  0  0  0  0  0  0  0
  -18.8960    3.6157  -15.4522 N   0  0  0  0  0  0  0  0  0  0  0  0
  -17.5628    3.2776  -15.5483 C   0  0  0  0  0  0  0  0  0  0  0  0
  -17.0318    2.2205  -15.2407 O   0  0  0  0  0  0  0  0  0  0  0  0
  -19.1895    4.5411  -15.7316 H   0  0  0  0  0  0  0  0  0  0  0  0
  -16.7092    4.4003  -16.0616 C   0  0  0  0  0  0  0  0  0  0  0  0
  -15.8395    4.2131  -17.2875 C   0  0  0  0  0  0  0  0  0  0  0  0
  -15.2051    4.2936  -15.9303 C   0  0  0  0  0  0  0  0  0  0  0  0
 12 13  1  0  0  0
 13 14  1  0  0  0
 13 18  2  0  0  0
 14 15  2  0  0  0
 15  8  1  0  0  0
 15 16  1  0  0  0
  8  9  2  0  0  0
  8 10  1  0  0  0
 10  1  1  0  0  0
 10 11  1  0  0  0
  1  2  1  0  0  0
  1  7  2  0  0  0
  2  3  2  0  0  0
  3  4  1  0  0  0
  4  5  1  0  0  0
  4  6  2  0  0  0
  6 19  1  0  0  0
  6  7  1  0  0  0
 19 20  1  0  0  0
 20 21  1  0  0  0
 20 28  2  0  0  0
 21 22  2  0  0  0
 22 23  1  0  0  0
 23 24  2  0  0  0
 23 27  1  0  0  0
 24 25  1  0  0  0
 25 29  1  0  0  0
 25 26  2  0  0  0
 29 30  1  0  0  0
 29 32  1  0  0  0
 30 31  2  0  0  0
 30 33  1  0  0  0
 33 34  1  0  0  0
 33 35  1  0  0  0
 34 35  1  0  0  0
 26 27  1  0  0  0
 27 28  1  0  0  0
 16 17  1  0  0  0
 16 18  1  0  0  0
M  END
> <minimizedAffinity>
-10.87240

$$$$
