CHEMBL2003638


 33 37  0  0  0  0  0  0  0  0999 V2000
  -15.3530    0.4095  -15.0057 C   0  0  0  0  0  0  0  0  0  0  0  0
  -14.1508    0.9222  -15.2911 N   0  0  0  0  0  0  0  0  0  0  0  0
  -14.4438    2.1122  -15.8546 N   0  0  0  0  0  0  0  0  0  0  0  0
  -15.7625    2.4624  -15.7743 C   0  0  0  0  0  0  0  0  0  0  0  0
  -16.4384    3.6296  -16.1384 C   0  0  0  0  0  0  0  0  0  0  0  0
  -17.8058    3.6815  -15.8669 C   0  0  0  0  0  0  0  0  0  0  0  0
  -18.4702    2.6094  -15.2539 C   0  0  0  0  0  0  0  0  0  0  0  0
  -17.7656    1.4424  -14.9133 C   0  0  0  0  0  0  0  0  0  0  0  0
  -16.3909    1.3608  -15.2032 C   0  0  0  0  0  0  0  0  0  0  0  0
  -13.6843    2.6620  -16.2417 H   0  0  0  0  0  0  0  0  0  0  0  0
  -19.8940    2.6729  -15.0041 C   0  0  0  0  0  0  0  0  0  0  0  0
  -20.5810    1.8919  -14.1066 C   0  0  0  0  0  0  0  0  0  0  0  0
  -21.8520    2.3832  -14.1550 N   0  0  0  0  0  0  0  0  0  0  0  0
  -21.9520    3.3887  -15.0461 N   0  0  0  0  0  0  0  0  0  0  0  0
  -20.7493    3.5758  -15.5744 N   0  0  0  0  0  0  0  0  0  0  0  0
  -22.9858    2.0326  -13.3170 C   0  0  0  0  0  0  0  0  0  0  0  0
  -23.1433    0.5394  -13.1711 C   0  0  0  0  0  0  0  0  0  0  0  0
  -23.7040   -0.2222  -14.2082 C   0  0  0  0  0  0  0  0  0  0  0  0
  -23.8979   -1.5965  -14.0552 C   0  0  0  0  0  0  0  0  0  0  0  0
  -23.5066   -2.2295  -12.8774 C   0  0  0  0  0  0  0  0  0  0  0  0
  -22.9150   -1.4913  -11.8552 C   0  0  0  0  0  0  0  0  0  0  0  0
  -22.7333   -0.1156  -11.9998 C   0  0  0  0  0  0  0  0  0  0  0  0
  -15.3571   -0.1030  -12.2226 O   0  0  0  0  0  0  0  0  0  0  0  0
  -15.4922   -0.9846  -13.0513 C   0  0  0  0  0  0  0  0  0  0  0  0
  -15.4537   -0.8418  -14.4312 N   0  0  0  0  0  0  0  0  0  0  0  0
  -16.0020   -1.4839  -14.9798 H   0  0  0  0  0  0  0  0  0  0  0  0
  -15.8177   -2.3693  -12.5906 C   0  0  0  0  0  0  0  0  0  0  0  0
  -15.8000   -2.6452  -11.2144 C   0  0  0  0  0  0  0  0  0  0  0  0
  -16.1010   -3.9284  -10.7497 C   0  0  0  0  0  0  0  0  0  0  0  0
  -16.4082   -4.9381  -11.6598 C   0  0  0  0  0  0  0  0  0  0  0  0
  -16.4003   -4.6604  -13.0241 C   0  0  0  0  0  0  0  0  0  0  0  0
  -16.6756   -5.6407  -13.8949 F   0  0  0  0  0  0  0  0  0  0  0  0
  -16.1076   -3.3883  -13.5020 C   0  0  0  0  0  0  0  0  0  0  0  0
 23 24  2  0  0  0
 24 25  1  0  0  0
 24 27  1  0  0  0
 25  1  1  0  0  0
 25 26  1  0  0  0
  1  2  2  0  0  0
  1  9  1  0  0  0
  2  3  1  0  0  0
  3  4  1  0  0  0
  3 10  1  0  0  0
  4  5  1  0  0  0
  4  9  2  0  0  0
  5  6  2  0  0  0
  6  7  1  0  0  0
  7 11  1  0  0  0
  7  8  2  0  0  0
 11 12  2  0  0  0
 11 15  1  0  0  0
 12 13  1  0  0  0
 13 16  1  0  0  0
 13 14  1  0  0  0
 16 17  1  0  0  0
 17 18  1  0  0  0
 17 22  2  0  0  0
 18 19  2  0  0  0
 19 20  1  0  0  0
 20 21  2  0  0  0
 21 22  1  0  0  0
 14 15  2  0  0  0
  8  9  1  0  0  0
 27 28  1  0  0  0
 27 33  2  0  0  0
 28 29  2  0  0  0
 29 30  1  0  0  0
 30 31  2  0  0  0
 31 32  1  0  0  0
 31 33  1  0  0  0
M  END
> <minimizedAffinity>
-11.63802

$$$$
