CHEMBL177688


 28 30  0  0  0  0  0  0  0  0999 V2000
  -29.7805   -6.2503   -5.0985 C   0  0  0  0  0  0  0  0  0  0  0  0
  -31.0673   -6.0715   -4.5950 C   0  0  0  0  0  0  0  0  0  0  0  0
  -31.4568   -4.9648   -3.9202 N   0  0  0  0  0  0  0  0  0  0  0  0
  -30.4937   -4.0240   -3.7738 C   0  0  0  0  0  0  0  0  0  0  0  0
  -29.1846   -4.1732   -4.2364 C   0  0  0  0  0  0  0  0  0  0  0  0
  -28.8376   -5.2906   -4.9173 N   0  0  0  0  0  0  0  0  0  0  0  0
  -28.6106   -8.5401   -7.9066 C   0  0  0  0  0  0  0  0  0  0  0  0
  -28.5905   -9.7271   -7.1754 C   0  0  0  0  0  0  0  0  0  0  0  0
  -28.8793   -9.8343   -5.8565 N   0  0  0  0  0  0  0  0  0  0  0  0
  -29.2539   -8.6923   -5.2288 C   0  0  0  0  0  0  0  0  0  0  0  0
  -29.3561   -7.4445   -5.8405 C   0  0  0  0  0  0  0  0  0  0  0  0
  -29.0449   -7.4075   -7.2116 C   0  0  0  0  0  0  0  0  0  0  0  0
  -28.3498   -8.5339   -9.2887 N   0  0  0  0  0  0  0  0  0  0  0  0
  -29.1193   -8.9647   -9.8011 H   0  0  0  0  0  0  0  0  0  0  0  0
  -27.0555   -9.0708   -9.7206 C   0  0  0  0  0  0  0  0  0  0  0  0
  -27.2303   -9.8944  -10.9945 C   0  0  0  0  0  0  0  0  0  0  0  0
  -29.4835   -9.6859  -11.8157 O   0  0  0  0  0  0  0  0  0  0  0  0
  -28.6179  -10.5184  -11.0570 C   0  0  0  0  0  0  0  0  0  0  0  0
  -30.3450  -10.1362  -11.8692 H   0  0  0  0  0  0  0  0  0  0  0  0
  -28.2496   -3.1255   -4.0767 N   0  0  0  0  0  0  0  0  0  0  0  0
  -27.3241   -3.4849   -3.8660 H   0  0  0  0  0  0  0  0  0  0  0  0
  -28.1207   -2.0121   -4.9438 C   0  0  0  0  0  0  0  0  0  0  0  0
  -28.2517   -0.6903   -4.4943 C   0  0  0  0  0  0  0  0  0  0  0  0
  -28.1972    0.3813   -5.3883 C   0  0  0  0  0  0  0  0  0  0  0  0
  -28.0200    0.1421   -6.7485 C   0  0  0  0  0  0  0  0  0  0  0  0
  -27.9072   -1.1694   -7.2055 C   0  0  0  0  0  0  0  0  0  0  0  0
  -27.6946   -1.4678   -8.8882 Cl  0  0  0  0  0  0  0  0  0  0  0  0
  -27.9738   -2.2412   -6.3149 C   0  0  0  0  0  0  0  0  0  0  0  0
 17 18  1  0  0  0
 17 19  1  0  0  0
 18 16  1  0  0  0
 16 15  1  0  0  0
 15 13  1  0  0  0
 13  7  1  0  0  0
 13 14  1  0  0  0
  7  8  1  0  0  0
  7 12  2  0  0  0
  8  9  2  0  0  0
  9 10  1  0  0  0
 10 11  2  0  0  0
 11  1  1  0  0  0
 11 12  1  0  0  0
  1  2  1  0  0  0
  1  6  2  0  0  0
  2  3  2  0  0  0
  3  4  1  0  0  0
  4  5  2  0  0  0
  5 20  1  0  0  0
  5  6  1  0  0  0
 20 22  1  0  0  0
 20 21  1  0  0  0
 22 23  1  0  0  0
 22 28  2  0  0  0
 23 24  2  0  0  0
 24 25  1  0  0  0
 25 26  2  0  0  0
 26 27  1  0  0  0
 26 28  1  0  0  0
M  END
> <minimizedAffinity>
-7.75762

$$$$
