CHEMBL68082


 34 38  0  0  0  0  0  0  0  0999 V2000
  -28.5488   -7.4712   -7.2585 C   0  0  0  0  0  0  0  0  0  0  0  0
  -28.5917   -7.2824   -5.8687 C   0  0  0  0  0  0  0  0  0  0  0  0
  -28.3444   -8.5669   -5.2464 C   0  0  0  0  0  0  0  0  0  0  0  0
  -28.2387   -9.0983   -3.9373 C   0  0  0  0  0  0  0  0  0  0  0  0
  -28.4340   -8.4051   -2.7583 N   0  0  0  0  0  0  0  0  0  0  0  0
  -27.8770  -10.3869   -3.7784 N   0  0  0  0  0  0  0  0  0  0  0  0
  -27.6718  -11.1340   -4.8715 C   0  0  0  0  0  0  0  0  0  0  0  0
  -27.7959  -10.7659   -6.1497 N   0  0  0  0  0  0  0  0  0  0  0  0
  -28.1272   -9.4697   -6.2809 C   0  0  0  0  0  0  0  0  0  0  0  0
  -28.3119   -8.8243   -7.4819 N   0  0  0  0  0  0  0  0  0  0  0  0
  -29.0602   -7.6141   -2.7454 H   0  0  0  0  0  0  0  0  0  0  0  0
  -28.3264   -8.9595   -1.9200 H   0  0  0  0  0  0  0  0  0  0  0  0
  -28.8188   -5.9868   -5.2145 C   0  0  0  0  0  0  0  0  0  0  0  0
  -27.8232   -5.3514   -4.4675 C   0  0  0  0  0  0  0  0  0  0  0  0
  -28.0386   -4.0955   -3.9028 C   0  0  0  0  0  0  0  0  0  0  0  0
  -29.1686   -3.3615   -4.2535 C   0  0  0  0  0  0  0  0  0  0  0  0
  -30.1862   -3.9840   -4.9654 C   0  0  0  0  0  0  0  0  0  0  0  0
  -30.0388   -5.3152   -5.3653 C   0  0  0  0  0  0  0  0  0  0  0  0
  -29.3683   -2.0390   -3.9237 O   0  0  0  0  0  0  0  0  0  0  0  0
  -29.1253   -1.0644   -4.8657 C   0  0  0  0  0  0  0  0  0  0  0  0
  -28.0025   -1.0194   -5.6795 C   0  0  0  0  0  0  0  0  0  0  0  0
  -27.7926    0.0675   -6.5397 C   0  0  0  0  0  0  0  0  0  0  0  0
  -28.7572    1.0612   -6.6318 C   0  0  0  0  0  0  0  0  0  0  0  0
  -29.9368    0.9733   -5.8750 C   0  0  0  0  0  0  0  0  0  0  0  0
  -30.1129   -0.0875   -4.9896 C   0  0  0  0  0  0  0  0  0  0  0  0
  -28.2684   -9.4707   -8.7833 C   0  0  0  0  0  0  0  0  0  0  0  0
  -29.0912  -10.7543   -8.9120 C   0  0  0  0  0  0  0  0  0  0  0  0
  -28.5574  -11.4189  -10.1801 C   0  0  0  0  0  0  0  0  0  0  0  0
  -27.2052  -10.7676  -10.4821 C   0  0  0  0  0  0  0  0  0  0  0  0
  -26.8856   -9.8751   -9.2876 C   0  0  0  0  0  0  0  0  0  0  0  0
  -27.3373   -6.1852   -8.9231 N   0  0  0  0  0  0  0  0  0  0  0  0
  -28.6607   -6.5033   -8.4010 C   0  0  0  0  0  0  0  0  0  0  0  0
  -27.4312   -5.6166   -9.7622 H   0  0  0  0  0  0  0  0  0  0  0  0
  -26.8557   -7.0399   -9.1936 H   0  0  0  0  0  0  0  0  0  0  0  0
 31 32  1  0  0  0
 31 33  1  0  0  0
 31 34  1  0  0  0
 32  1  1  0  0  0
  1  2  2  0  0  0
  1 10  1  0  0  0
  2 13  1  0  0  0
  2  3  1  0  0  0
 13 14  1  0  0  0
 13 18  2  0  0  0
 14 15  2  0  0  0
 15 16  1  0  0  0
 16 19  1  0  0  0
 16 17  2  0  0  0
 19 20  1  0  0  0
 20 21  1  0  0  0
 20 25  2  0  0  0
 21 22  2  0  0  0
 22 23  1  0  0  0
 23 24  2  0  0  0
 24 25  1  0  0  0
 17 18  1  0  0  0
  3  4  1  0  0  0
  3  9  2  0  0  0
  4  5  1  0  0  0
  4  6  2  0  0  0
  5 11  1  0  0  0
  5 12  1  0  0  0
  6  7  1  0  0  0
  7  8  2  0  0  0
  8  9  1  0  0  0
  9 10  1  0  0  0
 10 26  1  0  0  0
 26 27  1  0  0  0
 26 30  1  0  0  0
 27 28  1  0  0  0
 28 29  1  0  0  0
 29 30  1  0  0  0
M  END
> <minimizedAffinity>
-9.01426

$$$$
