CHEMBL3633762


 30 32  0  0  0  0  0  0  0  0999 V2000
  -28.4034   -0.9285   -6.3094 C   0  0  0  0  0  0  0  0  0  0  0  0
  -29.0804   -1.4378   -5.1934 C   0  0  0  0  0  0  0  0  0  0  0  0
  -29.3914   -2.7834   -5.0576 C   0  0  0  0  0  0  0  0  0  0  0  0
  -30.0569   -3.1697   -3.9674 N   0  0  0  0  0  0  0  0  0  0  0  0
  -30.3304   -4.4722   -3.8638 C   0  0  0  0  0  0  0  0  0  0  0  0
  -29.9711   -5.4180   -4.7315 N   0  0  0  0  0  0  0  0  0  0  0  0
  -29.2827   -5.0246   -5.8187 C   0  0  0  0  0  0  0  0  0  0  0  0
  -28.9881   -3.6737   -6.0555 C   0  0  0  0  0  0  0  0  0  0  0  0
  -28.3156   -3.1785   -7.1905 C   0  0  0  0  0  0  0  0  0  0  0  0
  -27.9835   -1.8266   -7.2998 C   0  0  0  0  0  0  0  0  0  0  0  0
  -29.1902    1.3355   -6.5745 C   0  0  0  0  0  0  0  0  0  0  0  0
  -28.1215    0.3971   -6.4764 O   0  0  0  0  0  0  0  0  0  0  0  0
  -28.8074   -6.0174   -6.7226 N   0  0  0  0  0  0  0  0  0  0  0  0
  -27.9294   -6.3858   -6.3721 H   0  0  0  0  0  0  0  0  0  0  0  0
  -29.6332   -7.0321   -7.2565 C   0  0  0  0  0  0  0  0  0  0  0  0
  -30.9646   -7.1546   -6.8369 C   0  0  0  0  0  0  0  0  0  0  0  0
  -31.7665   -8.2057   -7.2784 C   0  0  0  0  0  0  0  0  0  0  0  0
  -31.2433   -9.1442   -8.1646 C   0  0  0  0  0  0  0  0  0  0  0  0
  -29.9331   -9.0109   -8.6177 C   0  0  0  0  0  0  0  0  0  0  0  0
  -29.2245  -10.2945   -9.8139 Br  0  0  0  0  0  0  0  0  0  0  0  0
  -29.1273   -7.9563   -8.1808 C   0  0  0  0  0  0  0  0  0  0  0  0
  -27.2662   -1.5621   -8.4323 O   0  0  0  0  0  0  0  0  0  0  0  0
  -27.6090   -2.2377   -9.6428 C   0  0  0  0  0  0  0  0  0  0  0  0
  -27.6093   -1.3366  -10.8779 C   0  0  0  0  0  0  0  0  0  0  0  0
  -26.3685   -1.5903  -11.6904 C   0  0  0  0  0  0  0  0  0  0  0  0
  -26.3124   -1.4941  -12.9153 O   0  0  0  0  0  0  0  0  0  0  0  0
  -25.2701   -1.9605  -10.9546 N   0  0  0  0  0  0  0  0  0  0  0  0
  -24.1308   -2.3047  -11.7302 O   0  0  0  0  0  0  0  0  0  0  0  0
  -25.3277   -2.3745  -10.0337 H   0  0  0  0  0  0  0  0  0  0  0  0
  -24.4381   -2.1238  -12.6474 H   0  0  0  0  0  0  0  0  0  0  0  0
 11 12  1  0  0  0
 12  1  1  0  0  0
  1  2  1  0  0  0
  1 10  2  0  0  0
  2  3  2  0  0  0
  3  4  1  0  0  0
  3  8  1  0  0  0
  4  5  2  0  0  0
  5  6  1  0  0  0
  6  7  2  0  0  0
  7 13  1  0  0  0
  7  8  1  0  0  0
 13 15  1  0  0  0
 13 14  1  0  0  0
 15 16  1  0  0  0
 15 21  2  0  0  0
 16 17  2  0  0  0
 17 18  1  0  0  0
 18 19  2  0  0  0
 19 20  1  0  0  0
 19 21  1  0  0  0
  8  9  2  0  0  0
  9 10  1  0  0  0
 10 22  1  0  0  0
 22 23  1  0  0  0
 23 24  1  0  0  0
 24 25  1  0  0  0
 25 26  2  0  0  0
 25 27  1  0  0  0
 27 28  1  0  0  0
 27 29  1  0  0  0
 28 30  1  0  0  0
M  END
> <minimizedAffinity>
-8.74243

$$$$
