CHEMBL1762526


 36 40  0  0  0  0  0  0  0  0999 V2000
  -28.0056   -8.1329   -3.9160 N   0  0  0  0  0  0  0  0  0  0  0  0
  -28.2705   -7.5997   -3.1027 H   0  0  0  0  0  0  0  0  0  0  0  0
  -26.3042  -11.2122   -3.2977 C   0  0  0  0  0  0  0  0  0  0  0  0
  -27.3555  -12.0879   -3.0842 C   0  0  0  0  0  0  0  0  0  0  0  0
  -28.6175  -11.5753   -3.2064 C   0  0  0  0  0  0  0  0  0  0  0  0
  -28.8593  -10.2862   -3.4625 N   0  0  0  0  0  0  0  0  0  0  0  0
  -27.8017   -9.4768   -3.6123 C   0  0  0  0  0  0  0  0  0  0  0  0
  -26.5301   -9.8993   -3.5374 N   0  0  0  0  0  0  0  0  0  0  0  0
  -24.9728  -11.7002   -3.2812 N   0  0  0  0  0  0  0  0  0  0  0  0
  -24.6657  -12.3699   -2.0135 C   0  0  0  0  0  0  0  0  0  0  0  0
  -23.9996  -12.2015   -8.1342 C   0  0  0  0  0  0  0  0  0  0  0  0
  -23.5206  -11.9039   -6.7444 C   0  0  0  0  0  0  0  0  0  0  0  0
  -22.1798  -11.6293   -6.5017 C   0  0  0  0  0  0  0  0  0  0  0  0
  -21.7463  -11.4013   -5.2013 C   0  0  0  0  0  0  0  0  0  0  0  0
  -22.6353  -11.4616   -4.1083 C   0  0  0  0  0  0  0  0  0  0  0  0
  -22.0057  -11.2959   -2.7467 C   0  0  0  0  0  0  0  0  0  0  0  0
  -24.0214  -11.6862   -4.3283 C   0  0  0  0  0  0  0  0  0  0  0  0
  -24.4237  -11.9075   -5.6659 C   0  0  0  0  0  0  0  0  0  0  0  0
  -28.2463   -7.5496   -5.1703 C   0  0  0  0  0  0  0  0  0  0  0  0
  -28.5515   -6.1888   -5.3053 C   0  0  0  0  0  0  0  0  0  0  0  0
  -28.8539   -5.6138   -6.5389 C   0  0  0  0  0  0  0  0  0  0  0  0
  -28.8745   -6.4696   -7.6509 C   0  0  0  0  0  0  0  0  0  0  0  0
  -28.5581   -7.8391   -7.5854 C   0  0  0  0  0  0  0  0  0  0  0  0
  -28.2429   -8.3518   -6.3199 C   0  0  0  0  0  0  0  0  0  0  0  0
  -29.0902   -4.2608   -6.6924 N   0  0  0  0  0  0  0  0  0  0  0  0
  -29.0858   -3.6110   -8.0097 C   0  0  0  0  0  0  0  0  0  0  0  0
  -27.9177   -2.6267   -8.1330 C   0  0  0  0  0  0  0  0  0  0  0  0
  -27.9141   -1.6792   -7.0511 O   0  0  0  0  0  0  0  0  0  0  0  0
  -27.7791   -2.3684   -5.7958 C   0  0  0  0  0  0  0  0  0  0  0  0
  -28.9396   -3.3489   -5.5489 C   0  0  0  0  0  0  0  0  0  0  0  0
  -28.5540   -8.6230   -8.7213 N   0  0  0  0  0  0  0  0  0  0  0  0
  -29.7223   -9.3727   -9.2027 C   0  0  0  0  0  0  0  0  0  0  0  0
  -29.3651  -10.8623   -9.3257 C   0  0  0  0  0  0  0  0  0  0  0  0
  -28.2156  -11.0580  -10.1679 O   0  0  0  0  0  0  0  0  0  0  0  0
  -27.0785  -10.3651   -9.6269 C   0  0  0  0  0  0  0  0  0  0  0  0
  -27.3291   -8.8520   -9.5045 C   0  0  0  0  0  0  0  0  0  0  0  0
 11 12  1  0  0  0
 12 13  1  0  0  0
 12 18  2  0  0  0
 13 14  2  0  0  0
 14 15  1  0  0  0
 15 16  1  0  0  0
 15 17  2  0  0  0
 17  9  1  0  0  0
 17 18  1  0  0  0
  9 10  1  0  0  0
  9  3  1  0  0  0
  3  4  1  0  0  0
  3  8  2  0  0  0
  4  5  2  0  0  0
  5  6  1  0  0  0
  6  7  2  0  0  0
  7  1  1  0  0  0
  7  8  1  0  0  0
  1 19  1  0  0  0
  1  2  1  0  0  0
 19 20  1  0  0  0
 19 24  2  0  0  0
 20 21  2  0  0  0
 21 25  1  0  0  0
 21 22  1  0  0  0
 25 26  1  0  0  0
 25 30  1  0  0  0
 26 27  1  0  0  0
 27 28  1  0  0  0
 28 29  1  0  0  0
 29 30  1  0  0  0
 22 23  2  0  0  0
 23 31  1  0  0  0
 23 24  1  0  0  0
 31 32  1  0  0  0
 31 36  1  0  0  0
 32 33  1  0  0  0
 33 34  1  0  0  0
 34 35  1  0  0  0
 35 36  1  0  0  0
M  END
> <minimizedAffinity>
-8.75589

$$$$
