CHEMBL4286023


 35 38  0  0  0  0  0  0  0  0999 V2000
  -29.0070   -8.6649   -5.5389 C   0  0  0  0  0  0  0  0  0  0  0  0
  -29.5880   -8.5644   -6.7652 C   0  0  0  0  0  0  0  0  0  0  0  0
  -29.8299   -9.7582   -7.4829 N   0  0  0  0  0  0  0  0  0  0  0  0
  -30.5176   -9.7923   -8.7678 C   0  0  0  0  0  0  0  0  0  0  0  0
  -29.5350  -11.0258   -6.9906 C   0  0  0  0  0  0  0  0  0  0  0  0
  -29.7655  -12.0718   -7.5950 O   0  0  0  0  0  0  0  0  0  0  0  0
  -28.9778  -11.0966   -5.7621 N   0  0  0  0  0  0  0  0  0  0  0  0
  -28.5159   -9.9837   -4.9825 C   0  0  0  0  0  0  0  0  0  0  0  0
  -28.7416  -12.0313   -5.4611 H   0  0  0  0  0  0  0  0  0  0  0  0
  -26.9960  -10.0163   -4.8605 C   0  0  0  0  0  0  0  0  0  0  0  0
  -26.1738  -10.1441   -5.9936 C   0  0  0  0  0  0  0  0  0  0  0  0
  -24.7896   -9.9958   -5.8860 C   0  0  0  0  0  0  0  0  0  0  0  0
  -24.2091   -9.7293   -4.6480 C   0  0  0  0  0  0  0  0  0  0  0  0
  -25.0066   -9.6441   -3.5088 C   0  0  0  0  0  0  0  0  0  0  0  0
  -26.3885   -9.7990   -3.6122 C   0  0  0  0  0  0  0  0  0  0  0  0
  -28.7894   -7.5696   -4.5417 C   0  0  0  0  0  0  0  0  0  0  0  0
  -27.9029   -6.7361   -4.6505 O   0  0  0  0  0  0  0  0  0  0  0  0
  -29.6777   -7.6095   -3.5298 O   0  0  0  0  0  0  0  0  0  0  0  0
  -31.4327   -6.0865   -4.1908 C   0  0  0  0  0  0  0  0  0  0  0  0
  -30.3325   -6.3814   -3.1914 C   0  0  0  0  0  0  0  0  0  0  0  0
  -29.9547   -7.2377   -7.4388 C   0  0  0  0  0  0  0  0  0  0  0  0
  -28.4638   -6.3641   -8.0284 S   0  0  0  0  0  0  0  0  0  0  0  0
  -28.7704   -4.7697   -7.4358 C   0  0  0  0  0  0  0  0  0  0  0  0
  -28.3071   -3.6415   -7.9135 N   0  0  0  0  0  0  0  0  0  0  0  0
  -28.6390   -2.6995   -6.9733 C   0  0  0  0  0  0  0  0  0  0  0  0
  -28.2858   -1.3466   -6.9175 C   0  0  0  0  0  0  0  0  0  0  0  0
  -28.7037   -0.5991   -5.7988 C   0  0  0  0  0  0  0  0  0  0  0  0
  -29.4674   -1.1821   -4.7706 C   0  0  0  0  0  0  0  0  0  0  0  0
  -29.8250   -2.5347   -4.8252 C   0  0  0  0  0  0  0  0  0  0  0  0
  -29.3822   -3.2623   -5.9343 C   0  0  0  0  0  0  0  0  0  0  0  0
  -29.4884   -4.5865   -6.2867 N   0  0  0  0  0  0  0  0  0  0  0  0
  -29.9146   -5.3210   -5.7458 H   0  0  0  0  0  0  0  0  0  0  0  0
  -28.3094    0.8086   -5.7091 N   0  0  0  0  0  0  0  0  0  0  0  0
  -27.9038    1.2284   -4.6111 O   0  0  0  0  0  0  0  0  0  0  0  0
  -28.4067    1.5060   -6.7299 O   0  0  0  0  0  0  0  0  0  0  0  0
 19 20  1  0  0  0
 20 18  1  0  0  0
 18 16  1  0  0  0
 16 17  2  0  0  0
 16  1  1  0  0  0
  1  2  2  0  0  0
  1  8  1  0  0  0
  2 21  1  0  0  0
  2  3  1  0  0  0
 21 22  1  0  0  0
 22 23  1  0  0  0
 23 24  2  0  0  0
 23 31  1  0  0  0
 24 25  1  0  0  0
 25 26  1  0  0  0
 25 30  2  0  0  0
 26 27  2  0  0  0
 27 33  1  0  0  0
 27 28  1  0  0  0
 33 34  2  0  0  0
 33 35  1  0  0  0
 28 29  2  0  0  0
 29 30  1  0  0  0
 30 31  1  0  0  0
 31 32  1  0  0  0
  3  4  1  0  0  0
  3  5  1  0  0  0
  5  6  2  0  0  0
  5  7  1  0  0  0
  7  8  1  0  0  0
  7  9  1  0  0  0
  8 10  1  0  0  0
 10 11  1  0  0  0
 10 15  2  0  0  0
 11 12  2  0  0  0
 12 13  1  0  0  0
 13 14  2  0  0  0
 14 15  1  0  0  0
M  CHG 1  33   1
M  CHG 1  35  -1
M  END
> <minimizedAffinity>
-7.93020

$$$$
