CHEMBL359592


 24 27  0  0  0  0  0  0  0  0999 V2000
  -29.7130   -6.7576   -4.1269 O   0  0  0  0  0  0  0  0  0  0  0  0
  -29.2339   -5.6395   -4.1746 C   0  0  0  0  0  0  0  0  0  0  0  0
  -28.6911   -4.9205   -3.1267 N   0  0  0  0  0  0  0  0  0  0  0  0
  -28.3924   -3.6112   -3.4099 N   0  0  0  0  0  0  0  0  0  0  0  0
  -28.6844   -3.4379   -4.6785 C   0  0  0  0  0  0  0  0  0  0  0  0
  -29.1447   -4.6997   -5.3220 C   0  0  0  0  0  0  0  0  0  0  0  0
  -29.2790   -4.9199   -6.6405 C   0  0  0  0  0  0  0  0  0  0  0  0
  -28.6350   -5.2753   -2.1795 H   0  0  0  0  0  0  0  0  0  0  0  0
  -29.5241   -6.1739   -7.2639 C   0  0  0  0  0  0  0  0  0  0  0  0
  -28.7299   -6.9861   -8.0559 C   0  0  0  0  0  0  0  0  0  0  0  0
  -29.4431   -8.1911   -8.3211 C   0  0  0  0  0  0  0  0  0  0  0  0
  -29.1407   -9.3986   -8.9795 C   0  0  0  0  0  0  0  0  0  0  0  0
  -30.1038  -10.4168   -9.0165 C   0  0  0  0  0  0  0  0  0  0  0  0
  -31.3511  -10.2433   -8.4186 C   0  0  0  0  0  0  0  0  0  0  0  0
  -31.6734   -9.0525   -7.7667 C   0  0  0  0  0  0  0  0  0  0  0  0
  -30.6973   -8.0528   -7.7360 C   0  0  0  0  0  0  0  0  0  0  0  0
  -30.7341   -6.8126   -7.1479 N   0  0  0  0  0  0  0  0  0  0  0  0
  -31.5157   -6.4887   -6.5908 H   0  0  0  0  0  0  0  0  0  0  0  0
  -28.5729   -2.1436   -5.3510 C   0  0  0  0  0  0  0  0  0  0  0  0
  -29.4877   -1.1417   -5.0579 C   0  0  0  0  0  0  0  0  0  0  0  0
  -29.4833    0.0541   -5.6985 N   0  0  0  0  0  0  0  0  0  0  0  0
  -28.5465    0.1875   -6.6649 C   0  0  0  0  0  0  0  0  0  0  0  0
  -27.6441   -0.8204   -6.9683 C   0  0  0  0  0  0  0  0  0  0  0  0
  -27.6267   -2.0062   -6.3141 N   0  0  0  0  0  0  0  0  0  0  0  0
  1  2  2  0  0  0
  2  3  1  0  0  0
  2  6  1  0  0  0
  3  4  1  0  0  0
  3  8  1  0  0  0
  4  5  2  0  0  0
  5 19  1  0  0  0
  5  6  1  0  0  0
 19 20  1  0  0  0
 19 24  2  0  0  0
 20 21  2  0  0  0
 21 22  1  0  0  0
 22 23  2  0  0  0
 23 24  1  0  0  0
  6  7  2  0  0  0
  7  9  1  0  0  0
  9 10  2  0  0  0
  9 17  1  0  0  0
 10 11  1  0  0  0
 11 12  1  0  0  0
 11 16  2  0  0  0
 12 13  2  0  0  0
 13 14  1  0  0  0
 14 15  2  0  0  0
 15 16  1  0  0  0
 16 17  1  0  0  0
 17 18  1  0  0  0
M  END
> <minimizedAffinity>
-8.33163

$$$$
