CHEMBL3763790


 44 48  0  0  0  0  0  0  0  0999 V2000
  -28.8647   -3.9190   -6.9342 C   0  0  0  0  0  0  0  0  0  0  0  0
  -28.9365   -5.3181   -6.8513 C   0  0  0  0  0  0  0  0  0  0  0  0
  -29.5308   -5.9058   -5.7093 C   0  0  0  0  0  0  0  0  0  0  0  0
  -29.6606   -7.2788   -5.4057 C   0  0  0  0  0  0  0  0  0  0  0  0
  -29.2795   -7.7214   -4.2074 N   0  0  0  0  0  0  0  0  0  0  0  0
  -29.2803   -6.7902   -3.2601 C   0  0  0  0  0  0  0  0  0  0  0  0
  -29.7648   -5.5424   -3.3962 N   0  0  0  0  0  0  0  0  0  0  0  0
  -29.8484   -5.0842   -4.6480 C   0  0  0  0  0  0  0  0  0  0  0  0
  -30.1520   -3.7506   -4.9190 C   0  0  0  0  0  0  0  0  0  0  0  0
  -29.6804   -3.1650   -6.0883 C   0  0  0  0  0  0  0  0  0  0  0  0
  -28.1391   -2.6366   -8.9431 C   0  0  0  0  0  0  0  0  0  0  0  0
  -29.2208   -2.5333   -9.5083 O   0  0  0  0  0  0  0  0  0  0  0  0
  -27.9170   -3.2083   -7.7127 N   0  0  0  0  0  0  0  0  0  0  0  0
  -26.9571   -3.3029   -7.3979 H   0  0  0  0  0  0  0  0  0  0  0  0
  -26.9090   -2.0339  -10.9040 C   0  0  0  0  0  0  0  0  0  0  0  0
  -26.9083   -2.0914   -9.5697 C   0  0  0  0  0  0  0  0  0  0  0  0
  -23.7062   -0.1707  -13.0662 C   0  0  0  0  0  0  0  0  0  0  0  0
  -23.8815   -0.0116  -11.6898 C   0  0  0  0  0  0  0  0  0  0  0  0
  -24.9249   -0.6601  -11.0307 C   0  0  0  0  0  0  0  0  0  0  0  0
  -25.8329   -1.4728  -11.7239 C   0  0  0  0  0  0  0  0  0  0  0  0
  -25.6864   -1.6294  -13.1036 C   0  0  0  0  0  0  0  0  0  0  0  0
  -24.6008   -0.9942  -13.7851 C   0  0  0  0  0  0  0  0  0  0  0  0
  -22.8568    1.9251  -13.8039 C   0  0  0  0  0  0  0  0  0  0  0  0
  -22.7368    0.5073  -13.7608 O   0  0  0  0  0  0  0  0  0  0  0  0
  -26.4606   -2.4382  -13.9146 O   0  0  0  0  0  0  0  0  0  0  0  0
  -27.8725   -2.3001  -13.8237 C   0  0  0  0  0  0  0  0  0  0  0  0
  -24.5659   -1.1770  -15.1494 O   0  0  0  0  0  0  0  0  0  0  0  0
  -25.6112   -0.5705  -15.9005 C   0  0  0  0  0  0  0  0  0  0  0  0
  -30.7364   -7.9857   -6.0577 N   0  0  0  0  0  0  0  0  0  0  0  0
  -31.1556   -8.5670   -5.3309 H   0  0  0  0  0  0  0  0  0  0  0  0
  -30.6398   -8.7796   -7.2422 C   0  0  0  0  0  0  0  0  0  0  0  0
  -29.6567   -8.4700   -8.2063 C   0  0  0  0  0  0  0  0  0  0  0  0
  -29.3357   -9.3723   -9.2285 C   0  0  0  0  0  0  0  0  0  0  0  0
  -29.9954  -10.5928   -9.2930 C   0  0  0  0  0  0  0  0  0  0  0  0
  -29.6078  -11.4877  -10.2149 F   0  0  0  0  0  0  0  0  0  0  0  0
  -31.0167  -10.8875   -8.3944 C   0  0  0  0  0  0  0  0  0  0  0  0
  -31.8382  -12.3997   -8.4733 Cl  0  0  0  0  0  0  0  0  0  0  0  0
  -31.3463   -9.9805   -7.3819 C   0  0  0  0  0  0  0  0  0  0  0  0
  -29.7826   -1.8190   -6.3275 O   0  0  0  0  0  0  0  0  0  0  0  0
  -29.4455   -0.9708   -5.2203 C   0  0  0  0  0  0  0  0  0  0  0  0
  -27.9760   -0.6140   -5.2679 C   0  0  0  0  0  0  0  0  0  0  0  0
  -27.9174    0.7825   -4.6916 C   0  0  0  0  0  0  0  0  0  0  0  0
  -29.1916    1.3938   -4.9092 O   0  0  0  0  0  0  0  0  0  0  0  0
  -30.1057    0.3963   -5.3825 C   0  0  0  0  0  0  0  0  0  0  0  0
 23 24  1  0  0  0
 24 17  1  0  0  0
 17 18  1  0  0  0
 17 22  2  0  0  0
 18 19  2  0  0  0
 19 20  1  0  0  0
 20 15  1  0  0  0
 20 21  2  0  0  0
 15 16  2  0  0  0
 16 11  1  0  0  0
 11 12  2  0  0  0
 11 13  1  0  0  0
 13  1  1  0  0  0
 13 14  1  0  0  0
  1  2  1  0  0  0
  1 10  2  0  0  0
  2  3  2  0  0  0
  3  4  1  0  0  0
  3  8  1  0  0  0
  4 29  1  0  0  0
  4  5  2  0  0  0
 29 31  1  0  0  0
 29 30  1  0  0  0
 31 32  1  0  0  0
 31 38  2  0  0  0
 32 33  2  0  0  0
 33 34  1  0  0  0
 34 35  1  0  0  0
 34 36  2  0  0  0
 36 37  1  0  0  0
 36 38  1  0  0  0
  5  6  1  0  0  0
  6  7  2  0  0  0
  7  8  1  0  0  0
  8  9  2  0  0  0
  9 10  1  0  0  0
 10 39  1  0  0  0
 40 41  1  0  0  0
 40 44  1  0  0  0
 40 39  1  0  0  0
 41 42  1  0  0  0
 42 43  1  0  0  0
 43 44  1  0  0  0
 21 25  1  0  0  0
 21 22  1  0  0  0
 25 26  1  0  0  0
 22 27  1  0  0  0
 27 28  1  0  0  0
M  END
> <minimizedAffinity>
-7.93374

$$$$
