CHEMBL196939


 30 33  0  0  0  0  0  0  0  0999 V2000
  -17.7955    2.3394  -15.3088 C   0  0  0  0  0  0  0  0  0  0  0  0
  -17.6848    3.3023  -16.2462 N   0  0  0  0  0  0  0  0  0  0  0  0
  -16.4374    3.7344  -16.6889 N   0  0  0  0  0  0  0  0  0  0  0  0
  -15.2956    3.1636  -16.2518 C   0  0  0  0  0  0  0  0  0  0  0  0
  -15.3556    2.1031  -15.3209 C   0  0  0  0  0  0  0  0  0  0  0  0
  -14.2161    1.3537  -14.9119 C   0  0  0  0  0  0  0  0  0  0  0  0
  -14.2899    0.3590  -13.9402 C   0  0  0  0  0  0  0  0  0  0  0  0
  -15.4805    0.1647  -13.2660 C   0  0  0  0  0  0  0  0  0  0  0  0
  -16.6023    0.9031  -13.6317 C   0  0  0  0  0  0  0  0  0  0  0  0
  -16.6169    1.7770  -14.7464 C   0  0  0  0  0  0  0  0  0  0  0  0
  -21.8058    1.0431  -14.1589 C   0  0  0  0  0  0  0  0  0  0  0  0
  -20.9447    0.1734  -14.8239 C   0  0  0  0  0  0  0  0  0  0  0  0
  -19.7016    0.6299  -15.2858 C   0  0  0  0  0  0  0  0  0  0  0  0
  -19.2060    1.9205  -14.9913 C   0  0  0  0  0  0  0  0  0  0  0  0
  -20.1384    2.8023  -14.4089 C   0  0  0  0  0  0  0  0  0  0  0  0
  -21.4218    2.3782  -14.0101 C   0  0  0  0  0  0  0  0  0  0  0  0
  -24.8145   -1.2324  -13.8200 C   0  0  0  0  0  0  0  0  0  0  0  0
  -23.5333   -0.6770  -14.1725 N   0  0  0  0  0  0  0  0  0  0  0  0
  -23.1302    0.5495  -13.6954 C   0  0  0  0  0  0  0  0  0  0  0  0
  -23.8190    1.2421  -12.9392 O   0  0  0  0  0  0  0  0  0  0  0  0
  -22.9458   -1.1972  -14.8129 H   0  0  0  0  0  0  0  0  0  0  0  0
  -14.0322    3.5875  -16.7768 N   0  0  0  0  0  0  0  0  0  0  0  0
  -13.3461    2.8523  -16.6511 H   0  0  0  0  0  0  0  0  0  0  0  0
  -13.3713    4.8026  -16.4665 C   0  0  0  0  0  0  0  0  0  0  0  0
  -12.7811    5.0460  -15.2188 C   0  0  0  0  0  0  0  0  0  0  0  0
  -12.1105    6.2474  -14.9672 C   0  0  0  0  0  0  0  0  0  0  0  0
  -11.9998    7.2023  -15.9738 C   0  0  0  0  0  0  0  0  0  0  0  0
  -11.2431    8.7112  -15.6434 Cl  0  0  0  0  0  0  0  0  0  0  0  0
  -12.5055    6.9432  -17.2446 C   0  0  0  0  0  0  0  0  0  0  0  0
  -13.1711    5.7382  -17.4932 C   0  0  0  0  0  0  0  0  0  0  0  0
 17 18  1  0  0  0
 18 19  1  0  0  0
 18 21  1  0  0  0
 19 20  2  0  0  0
 19 11  1  0  0  0
 11 12  1  0  0  0
 11 16  2  0  0  0
 12 13  2  0  0  0
 13 14  1  0  0  0
 14  1  1  0  0  0
 14 15  2  0  0  0
  1  2  1  0  0  0
  1 10  2  0  0  0
  2  3  2  0  0  0
  3  4  1  0  0  0
  4 22  1  0  0  0
  4  5  2  0  0  0
 22 24  1  0  0  0
 22 23  1  0  0  0
 24 25  1  0  0  0
 24 30  2  0  0  0
 25 26  2  0  0  0
 26 27  1  0  0  0
 27 28  1  0  0  0
 27 29  2  0  0  0
 29 30  1  0  0  0
  5  6  1  0  0  0
  5 10  1  0  0  0
  6  7  2  0  0  0
  7  8  1  0  0  0
  8  9  2  0  0  0
  9 10  1  0  0  0
 15 16  1  0  0  0
M  END
> <minimizedAffinity>
-8.72474

$$$$
