CHEMBL1683645


 27 29  0  0  0  0  0  0  0  0999 V2000
  -15.3335   -2.9733  -13.5816 C   0  0  0  0  0  0  0  0  0  0  0  0
  -16.2975   -3.4088  -12.6593 C   0  0  0  0  0  0  0  0  0  0  0  0
  -16.1789   -4.6760  -12.1357 C   0  0  0  0  0  0  0  0  0  0  0  0
  -17.0177   -5.0609  -11.1348 O   0  0  0  0  0  0  0  0  0  0  0  0
  -15.0654   -5.4268  -12.4699 C   0  0  0  0  0  0  0  0  0  0  0  0
  -14.4483   -5.2137  -13.7101 C   0  0  0  0  0  0  0  0  0  0  0  0
  -14.5365   -3.9341  -14.2419 C   0  0  0  0  0  0  0  0  0  0  0  0
  -13.5746   -6.1268  -14.2493 O   0  0  0  0  0  0  0  0  0  0  0  0
  -13.0354   -7.1038  -13.2958 C   0  0  0  0  0  0  0  0  0  0  0  0
  -13.9942   -8.2998  -13.1390 C   0  0  0  0  0  0  0  0  0  0  0  0
  -11.7330   -7.6145  -13.9327 C   0  0  0  0  0  0  0  0  0  0  0  0
  -12.7698   -6.3159  -11.9972 C   0  0  0  0  0  0  0  0  0  0  0  0
  -11.8661   -6.8645  -10.8913 C   0  0  0  0  0  0  0  0  0  0  0  0
  -11.5823   -5.7218   -9.9407 C   0  0  0  0  0  0  0  0  0  0  0  0
  -12.4610   -4.7175   -9.7488 C   0  0  0  0  0  0  0  0  0  0  0  0
  -12.0670   -3.4339   -9.0727 C   0  0  0  0  0  0  0  0  0  0  0  0
  -13.8484   -4.7522  -10.3491 C   0  0  0  0  0  0  0  0  0  0  0  0
  -14.1217   -5.9073  -11.3622 C   0  0  0  0  0  0  0  0  0  0  0  0
  -17.1059   -6.0277  -11.2203 H   0  0  0  0  0  0  0  0  0  0  0  0
  -14.9426   -1.4995  -13.6277 C   0  0  0  0  0  0  0  0  0  0  0  0
  -13.4131   -1.4037  -13.4185 C   0  0  0  0  0  0  0  0  0  0  0  0
  -15.7130   -0.6482  -12.6031 C   0  0  0  0  0  0  0  0  0  0  0  0
  -16.3902    0.6010  -13.1748 C   0  0  0  0  0  0  0  0  0  0  0  0
  -16.9364    0.3945  -14.5851 C   0  0  0  0  0  0  0  0  0  0  0  0
  -18.0187    1.4177  -14.9161 C   0  0  0  0  0  0  0  0  0  0  0  0
  -20.4883    1.4644  -14.4515 C   0  0  0  0  0  0  0  0  0  0  0  0
  -19.3596    0.7260  -15.1480 C   0  0  0  0  0  0  0  0  0  0  0  0
 26 27  1  0  0  0
 27 25  1  0  0  0
 25 24  1  0  0  0
 24 23  1  0  0  0
 23 22  1  0  0  0
 22 20  1  0  0  0
 20 21  1  0  0  0
 20  1  1  0  0  0
  1  2  1  0  0  0
  1  7  2  0  0  0
  2  3  2  0  0  0
  3  4  1  0  0  0
  3  5  1  0  0  0
  4 19  1  0  0  0
  5  6  2  0  0  0
  5 18  1  0  0  0
  6  7  1  0  0  0
  6  8  1  0  0  0
  8  9  1  0  0  0
  9 10  1  0  0  0
  9 11  1  0  0  0
  9 12  1  0  0  0
 12 13  1  0  0  0
 12 18  1  0  0  0
 13 14  1  0  0  0
 14 15  2  0  0  0
 15 16  1  0  0  0
 15 17  1  0  0  0
 17 18  1  0  0  0
M  END
> <minimizedAffinity>
-7.58381

$$$$
