CHEMBL3690411


 36 40  0  0  0  0  0  0  0  0999 V2000
  -29.9660   -3.6754   -5.1576 C   0  0  0  0  0  0  0  0  0  0  0  0
  -30.7149   -4.0606   -4.0555 C   0  0  0  0  0  0  0  0  0  0  0  0
  -31.1100   -5.3693   -4.1283 N   0  0  0  0  0  0  0  0  0  0  0  0
  -30.6067   -5.8165   -5.2566 C   0  0  0  0  0  0  0  0  0  0  0  0
  -30.6842   -7.1056   -5.8586 C   0  0  0  0  0  0  0  0  0  0  0  0
  -30.0685   -7.3749   -7.0357 C   0  0  0  0  0  0  0  0  0  0  0  0
  -29.3004   -6.3096   -7.6885 C   0  0  0  0  0  0  0  0  0  0  0  0
  -29.2032   -5.1008   -7.1158 C   0  0  0  0  0  0  0  0  0  0  0  0
  -29.8716   -4.8391   -5.9191 N   0  0  0  0  0  0  0  0  0  0  0  0
  -28.0366   -0.9882   -7.0022 C   0  0  0  0  0  0  0  0  0  0  0  0
  -28.3532    0.1278   -6.2280 C   0  0  0  0  0  0  0  0  0  0  0  0
  -29.0854   -0.0119   -5.0529 C   0  0  0  0  0  0  0  0  0  0  0  0
  -29.5344   -1.2682   -4.6620 C   0  0  0  0  0  0  0  0  0  0  0  0
  -29.3399   -2.3862   -5.4764 C   0  0  0  0  0  0  0  0  0  0  0  0
  -28.5480   -2.2426   -6.6278 C   0  0  0  0  0  0  0  0  0  0  0  0
  -28.2874   -2.4015   -9.6080 O   0  0  0  0  0  0  0  0  0  0  0  0
  -27.4009   -1.6059   -9.3347 C   0  0  0  0  0  0  0  0  0  0  0  0
  -26.4342   -1.2685  -10.2596 N   0  0  0  0  0  0  0  0  0  0  0  0
  -27.2200   -0.9262   -8.1510 N   0  0  0  0  0  0  0  0  0  0  0  0
  -25.5390   -0.9978   -9.8778 H   0  0  0  0  0  0  0  0  0  0  0  0
  -26.4679   -0.2545   -8.1309 H   0  0  0  0  0  0  0  0  0  0  0  0
  -26.3946   -2.0023  -11.5299 C   0  0  0  0  0  0  0  0  0  0  0  0
  -25.4552   -1.4096  -12.5891 C   0  0  0  0  0  0  0  0  0  0  0  0
  -24.2804   -2.0792  -12.6524 F   0  0  0  0  0  0  0  0  0  0  0  0
  -26.0038   -1.4043  -13.8210 F   0  0  0  0  0  0  0  0  0  0  0  0
  -25.1539   -0.1257  -12.2721 F   0  0  0  0  0  0  0  0  0  0  0  0
  -30.1322   -8.6689   -7.6446 C   0  0  0  0  0  0  0  0  0  0  0  0
  -30.9769   -9.7620   -7.3548 C   0  0  0  0  0  0  0  0  0  0  0  0
  -30.7536  -10.8071   -8.1572 N   0  0  0  0  0  0  0  0  0  0  0  0
  -29.7720  -10.3775   -8.9764 N   0  0  0  0  0  0  0  0  0  0  0  0
  -29.3423   -9.1176   -8.6776 C   0  0  0  0  0  0  0  0  0  0  0  0
  -29.3061  -11.2572  -10.0383 C   0  0  0  0  0  0  0  0  0  0  0  0
  -28.0169  -11.9573   -9.6724 C   0  0  0  0  0  0  0  0  0  0  0  0
  -26.9562  -10.9757  -10.1298 C   0  0  0  0  0  0  0  0  0  0  0  0
  -27.5129  -10.2229  -11.2172 O   0  0  0  0  0  0  0  0  0  0  0  0
  -28.9163  -10.5276  -11.3136 C   0  0  0  0  0  0  0  0  0  0  0  0
 16 17  2  0  0  0
 17 18  1  0  0  0
 17 19  1  0  0  0
 18 22  1  0  0  0
 18 20  1  0  0  0
 22 23  1  0  0  0
 23 24  1  0  0  0
 23 25  1  0  0  0
 23 26  1  0  0  0
 19 10  1  0  0  0
 19 21  1  0  0  0
 10 11  1  0  0  0
 10 15  2  0  0  0
 11 12  2  0  0  0
 12 13  1  0  0  0
 13 14  2  0  0  0
 14  1  1  0  0  0
 14 15  1  0  0  0
  1  2  2  0  0  0
  1  9  1  0  0  0
  2  3  1  0  0  0
  3  4  2  0  0  0
  4  5  1  0  0  0
  4  9  1  0  0  0
  5  6  2  0  0  0
  6 27  1  0  0  0
  6  7  1  0  0  0
 27 28  1  0  0  0
 27 31  2  0  0  0
 28 29  2  0  0  0
 29 30  1  0  0  0
 30 32  1  0  0  0
 30 31  1  0  0  0
 32 33  1  0  0  0
 32 36  1  0  0  0
 33 34  1  0  0  0
 34 35  1  0  0  0
 35 36  1  0  0  0
  7  8  2  0  0  0
  8  9  1  0  0  0
M  END
> <minimizedAffinity>
-10.11044

$$$$
