CHEMBL400253


 28 31  0  0  0  0  0  0  0  0999 V2000
  -29.8815   -3.3832   -4.9895 C   0  0  0  0  0  0  0  0  0  0  0  0
  -29.8504   -2.2126   -4.2202 C   0  0  0  0  0  0  0  0  0  0  0  0
  -29.2629   -1.0575   -4.7185 C   0  0  0  0  0  0  0  0  0  0  0  0
  -28.6339   -1.0277   -5.9659 C   0  0  0  0  0  0  0  0  0  0  0  0
  -28.5917   -2.2243   -6.7201 C   0  0  0  0  0  0  0  0  0  0  0  0
  -29.2144   -3.4056   -6.2497 C   0  0  0  0  0  0  0  0  0  0  0  0
  -29.0529   -4.4111   -7.2684 C   0  0  0  0  0  0  0  0  0  0  0  0
  -28.2645   -3.8683   -8.2443 C   0  0  0  0  0  0  0  0  0  0  0  0
  -28.0370   -2.5527   -7.9479 N   0  0  0  0  0  0  0  0  0  0  0  0
  -27.2479   -1.7312   -8.8359 C   0  0  0  0  0  0  0  0  0  0  0  0
  -29.5103   -5.7651   -7.2741 C   0  0  0  0  0  0  0  0  0  0  0  0
  -29.2307   -6.7590   -6.4129 C   0  0  0  0  0  0  0  0  0  0  0  0
  -28.2376   -6.8200   -5.3070 C   0  0  0  0  0  0  0  0  0  0  0  0
  -27.6131   -5.9427   -4.7470 O   0  0  0  0  0  0  0  0  0  0  0  0
  -28.1714   -8.1737   -5.0237 N   0  0  0  0  0  0  0  0  0  0  0  0
  -29.0975   -8.9517   -5.6708 N   0  0  0  0  0  0  0  0  0  0  0  0
  -29.7769   -8.1475   -6.4572 C   0  0  0  0  0  0  0  0  0  0  0  0
  -27.5922   -8.5556   -4.2851 H   0  0  0  0  0  0  0  0  0  0  0  0
  -30.9439   -8.6179   -7.1455 C   0  0  0  0  0  0  0  0  0  0  0  0
  -32.5329   -8.2033   -6.6423 S   0  0  0  0  0  0  0  0  0  0  0  0
  -33.2658   -9.1479   -7.7987 N   0  0  0  0  0  0  0  0  0  0  0  0
  -32.3996   -9.8207   -8.5317 N   0  0  0  0  0  0  0  0  0  0  0  0
  -31.0837   -9.5604   -8.1589 C   0  0  0  0  0  0  0  0  0  0  0  0
  -30.0152  -10.3060   -8.8733 C   0  0  0  0  0  0  0  0  0  0  0  0
  -31.5367   -4.2970   -3.5719 C   0  0  0  0  0  0  0  0  0  0  0  0
  -30.5097   -4.5279   -4.5388 O   0  0  0  0  0  0  0  0  0  0  0  0
  -28.3308    0.2392   -6.4250 O   0  0  0  0  0  0  0  0  0  0  0  0
  -29.4227    1.1394   -6.5356 C   0  0  0  0  0  0  0  0  0  0  0  0
 25 26  1  0  0  0
 26  1  1  0  0  0
  1  2  1  0  0  0
  1  6  2  0  0  0
  2  3  2  0  0  0
  3  4  1  0  0  0
  4 27  1  0  0  0
  4  5  2  0  0  0
 27 28  1  0  0  0
  5  6  1  0  0  0
  5  9  1  0  0  0
  6  7  1  0  0  0
  7 11  1  0  0  0
  7  8  2  0  0  0
 11 12  2  0  0  0
 12 13  1  0  0  0
 12 17  1  0  0  0
 13 14  2  0  0  0
 13 15  1  0  0  0
 15 16  1  0  0  0
 15 18  1  0  0  0
 16 17  2  0  0  0
 17 19  1  0  0  0
 19 20  1  0  0  0
 19 23  2  0  0  0
 20 21  1  0  0  0
 21 22  2  0  0  0
 22 23  1  0  0  0
 23 24  1  0  0  0
  8  9  1  0  0  0
  9 10  1  0  0  0
M  END
> <minimizedAffinity>
-8.84066

$$$$
