CHEMBL1086676


 38 43  0  0  0  0  0  0  0  0999 V2000
  -14.0815   -0.7389  -14.2203 C   0  0  0  0  0  0  0  0  0  0  0  0
  -13.2424   -1.1133  -15.2667 C   0  0  0  0  0  0  0  0  0  0  0  0
  -12.9982   -2.4610  -15.5100 C   0  0  0  0  0  0  0  0  0  0  0  0
  -13.6292   -3.4566  -14.7567 C   0  0  0  0  0  0  0  0  0  0  0  0
  -14.5935   -3.0839  -13.8207 C   0  0  0  0  0  0  0  0  0  0  0  0
  -14.8017   -1.7292  -13.5511 C   0  0  0  0  0  0  0  0  0  0  0  0
  -15.6904   -1.3923  -12.6046 F   0  0  0  0  0  0  0  0  0  0  0  0
  -13.3202   -4.8253  -14.9161 N   0  0  0  0  0  0  0  0  0  0  0  0
  -13.6026   -5.5479  -16.0629 C   0  0  0  0  0  0  0  0  0  0  0  0
  -14.0345   -5.0625  -17.1052 O   0  0  0  0  0  0  0  0  0  0  0  0
  -12.7521   -5.2600  -14.2030 H   0  0  0  0  0  0  0  0  0  0  0  0
  -13.3518   -6.9727  -16.0002 C   0  0  0  0  0  0  0  0  0  0  0  0
  -13.0541   -7.8764  -14.9672 C   0  0  0  0  0  0  0  0  0  0  0  0
  -12.9517   -9.1391  -15.3951 N   0  0  0  0  0  0  0  0  0  0  0  0
  -13.1561   -9.0651  -16.7389 N   0  0  0  0  0  0  0  0  0  0  0  0
  -13.3965   -7.7736  -17.1232 C   0  0  0  0  0  0  0  0  0  0  0  0
  -13.1184  -10.2100  -17.5794 C   0  0  0  0  0  0  0  0  0  0  0  0
  -12.1936  -11.2301  -17.3261 C   0  0  0  0  0  0  0  0  0  0  0  0
  -12.1558  -12.3552  -18.1527 C   0  0  0  0  0  0  0  0  0  0  0  0
  -13.0275  -12.4660  -19.2354 C   0  0  0  0  0  0  0  0  0  0  0  0
  -13.9494  -11.4541  -19.4918 C   0  0  0  0  0  0  0  0  0  0  0  0
  -14.0020  -10.3292  -18.6649 C   0  0  0  0  0  0  0  0  0  0  0  0
  -14.2497    0.5629  -13.8057 O   0  0  0  0  0  0  0  0  0  0  0  0
  -18.4296    2.1957  -14.8766 C   0  0  0  0  0  0  0  0  0  0  0  0
  -17.8085    2.8986  -15.8837 C   0  0  0  0  0  0  0  0  0  0  0  0
  -16.3944    2.7218  -15.8712 C   0  0  0  0  0  0  0  0  0  0  0  0
  -15.5195    3.3263  -16.7210 N   0  0  0  0  0  0  0  0  0  0  0  0
  -14.2195    3.0433  -16.5219 C   0  0  0  0  0  0  0  0  0  0  0  0
  -13.7294    2.1801  -15.5610 C   0  0  0  0  0  0  0  0  0  0  0  0
  -14.6341    1.5016  -14.7430 C   0  0  0  0  0  0  0  0  0  0  0  0
  -15.9888    1.8323  -14.8762 C   0  0  0  0  0  0  0  0  0  0  0  0
  -17.3274    1.2792  -13.9582 S   0  0  0  0  0  0  0  0  0  0  0  0
  -23.0988    0.9028  -13.7788 C   0  0  0  0  0  0  0  0  0  0  0  0
  -21.9361    1.6671  -14.1471 N   0  0  0  0  0  0  0  0  0  0  0  0
  -21.8461    3.0249  -14.2340 C   0  0  0  0  0  0  0  0  0  0  0  0
  -20.6148    3.4072  -14.4946 N   0  0  0  0  0  0  0  0  0  0  0  0
  -19.8928    2.2432  -14.6127 C   0  0  0  0  0  0  0  0  0  0  0  0
  -20.7057    1.1474  -14.4234 C   0  0  0  0  0  0  0  0  0  0  0  0
 33 34  1  0  0  0
 34 35  1  0  0  0
 34 38  1  0  0  0
 35 36  2  0  0  0
 36 37  1  0  0  0
 37 24  1  0  0  0
 37 38  2  0  0  0
 24 25  2  0  0  0
 24 32  1  0  0  0
 25 26  1  0  0  0
 26 27  1  0  0  0
 26 31  2  0  0  0
 27 28  2  0  0  0
 28 29  1  0  0  0
 29 30  2  0  0  0
 30 23  1  0  0  0
 30 31  1  0  0  0
 23  1  1  0  0  0
  1  2  1  0  0  0
  1  6  2  0  0  0
  2  3  2  0  0  0
  3  4  1  0  0  0
  4  8  1  0  0  0
  4  5  2  0  0  0
  8  9  1  0  0  0
  8 11  1  0  0  0
  9 10  2  0  0  0
  9 12  1  0  0  0
 12 13  1  0  0  0
 12 16  2  0  0  0
 13 14  2  0  0  0
 14 15  1  0  0  0
 15 17  1  0  0  0
 15 16  1  0  0  0
 17 18  1  0  0  0
 17 22  2  0  0  0
 18 19  2  0  0  0
 19 20  1  0  0  0
 20 21  2  0  0  0
 21 22  1  0  0  0
  5  6  1  0  0  0
  6  7  1  0  0  0
 31 32  1  0  0  0
M  END
> <minimizedAffinity>
-8.25414

$$$$
