CHEMBL3951714


 42 47  0  0  0  0  0  0  0  0999 V2000
  -18.3754    1.8153  -15.7751 C   0  0  0  0  0  0  0  0  0  0  0  0
  -19.1428    2.9261  -16.1378 C   0  0  0  0  0  0  0  0  0  0  0  0
  -20.3141    3.1618  -15.4490 C   0  0  0  0  0  0  0  0  0  0  0  0
  -20.8763    2.2102  -14.6201 C   0  0  0  0  0  0  0  0  0  0  0  0
  -21.8526    2.6621  -13.8247 N   0  0  0  0  0  0  0  0  0  0  0  0
  -22.6531    1.7374  -13.2876 C   0  0  0  0  0  0  0  0  0  0  0  0
  -22.5611    0.4102  -13.6494 C   0  0  0  0  0  0  0  0  0  0  0  0
  -21.4106   -0.0671  -14.2528 N   0  0  0  0  0  0  0  0  0  0  0  0
  -20.4544    0.8794  -14.6855 C   0  0  0  0  0  0  0  0  0  0  0  0
  -19.0915    0.7333  -15.1718 C   0  0  0  0  0  0  0  0  0  0  0  0
  -23.8644   -0.2632  -13.7573 C   0  0  0  0  0  0  0  0  0  0  0  0
  -24.5824   -0.8589  -14.8147 C   0  0  0  0  0  0  0  0  0  0  0  0
  -25.6678   -1.5368  -14.4012 N   0  0  0  0  0  0  0  0  0  0  0  0
  -25.6603   -1.3921  -13.0512 N   0  0  0  0  0  0  0  0  0  0  0  0
  -24.5443   -0.7209  -12.6296 C   0  0  0  0  0  0  0  0  0  0  0  0
  -26.8740   -1.7146  -12.2876 C   0  0  0  0  0  0  0  0  0  0  0  0
  -26.7314   -1.8260  -10.7721 C   0  0  0  0  0  0  0  0  0  0  0  0
  -25.6785   -1.6217  -10.1722 O   0  0  0  0  0  0  0  0  0  0  0  0
  -27.9052   -2.1223  -10.0886 N   0  0  0  0  0  0  0  0  0  0  0  0
  -28.7645   -2.2826  -10.5984 H   0  0  0  0  0  0  0  0  0  0  0  0
  -27.9286   -2.3839   -8.6522 C   0  0  0  0  0  0  0  0  0  0  0  0
  -28.0128   -1.1517   -7.7158 C   0  0  0  0  0  0  0  0  0  0  0  0
  -28.1620   -1.3845   -6.2585 N   0  0  0  0  0  0  0  0  0  0  0  0
  -29.5566   -1.0931   -5.8521 C   0  0  0  0  0  0  0  0  0  0  0  0
  -29.5575    0.3738   -5.4613 C   0  0  0  0  0  0  0  0  0  0  0  0
  -28.2524    0.4849   -4.7071 C   0  0  0  0  0  0  0  0  0  0  0  0
  -27.3259   -0.5002   -5.4207 C   0  0  0  0  0  0  0  0  0  0  0  0
  -16.9206    1.9825  -15.8335 N   0  0  0  0  0  0  0  0  0  0  0  0
  -15.4546   -0.3718  -13.1285 C   0  0  0  0  0  0  0  0  0  0  0  0
  -14.3213   -0.8541  -13.7790 C   0  0  0  0  0  0  0  0  0  0  0  0
  -14.0246   -0.3903  -15.0444 C   0  0  0  0  0  0  0  0  0  0  0  0
  -14.8183    0.6232  -15.6043 C   0  0  0  0  0  0  0  0  0  0  0  0
  -16.0688    1.0415  -15.0649 C   0  0  0  0  0  0  0  0  0  0  0  0
  -16.3643    0.4930  -13.7983 C   0  0  0  0  0  0  0  0  0  0  0  0
  -15.6761   -2.1379  -11.5553 C   0  0  0  0  0  0  0  0  0  0  0  0
  -15.7510   -0.7320  -11.8292 O   0  0  0  0  0  0  0  0  0  0  0  0
  -12.9828   -0.8460  -15.8105 O   0  0  0  0  0  0  0  0  0  0  0  0
  -13.1718   -0.7603  -17.2257 C   0  0  0  0  0  0  0  0  0  0  0  0
  -16.6148    3.4264  -15.5870 C   0  0  0  0  0  0  0  0  0  0  0  0
  -15.3640    4.0140  -16.2160 C   0  0  0  0  0  0  0  0  0  0  0  0
  -15.4593    5.0139  -17.3468 C   0  0  0  0  0  0  0  0  0  0  0  0
  -14.8011    3.6874  -17.5813 C   0  0  0  0  0  0  0  0  0  0  0  0
 35 36  1  0  0  0
 36 29  1  0  0  0
 29 30  1  0  0  0
 29 34  2  0  0  0
 30 31  2  0  0  0
 31 37  1  0  0  0
 31 32  1  0  0  0
 37 38  1  0  0  0
 32 33  2  0  0  0
 33 28  1  0  0  0
 33 34  1  0  0  0
 28 39  1  0  0  0
 28  1  1  0  0  0
 39 40  1  0  0  0
 40 41  1  0  0  0
 40 42  1  0  0  0
 41 42  1  0  0  0
  1  2  1  0  0  0
  1 10  2  0  0  0
  2  3  2  0  0  0
  3  4  1  0  0  0
  4  5  1  0  0  0
  4  9  2  0  0  0
  5  6  2  0  0  0
  6  7  1  0  0  0
  7 11  1  0  0  0
  7  8  2  0  0  0
 11 12  1  0  0  0
 11 15  2  0  0  0
 12 13  2  0  0  0
 13 14  1  0  0  0
 14 16  1  0  0  0
 14 15  1  0  0  0
 16 17  1  0  0  0
 17 18  2  0  0  0
 17 19  1  0  0  0
 19 21  1  0  0  0
 19 20  1  0  0  0
 21 22  1  0  0  0
 22 23  1  0  0  0
 23 24  1  0  0  0
 23 27  1  0  0  0
 24 25  1  0  0  0
 25 26  1  0  0  0
 26 27  1  0  0  0
  8  9  1  0  0  0
  9 10  1  0  0  0
M  END
> <minimizedAffinity>
-9.41071

$$$$
