CHEMBL3924066


 41 43  0  0  0  0  0  0  0  0999 V2000
  -24.3908  -11.5242   -7.5607 C   0  0  0  0  0  0  0  0  0  0  0  0
  -24.5354  -12.1476   -8.7952 C   0  0  0  0  0  0  0  0  0  0  0  0
  -25.5988  -11.9611   -9.6164 N   0  0  0  0  0  0  0  0  0  0  0  0
  -26.5623  -11.1194   -9.1743 C   0  0  0  0  0  0  0  0  0  0  0  0
  -26.5221  -10.4684   -7.9471 C   0  0  0  0  0  0  0  0  0  0  0  0
  -25.4135  -10.6726   -7.1263 C   0  0  0  0  0  0  0  0  0  0  0  0
  -22.1010  -11.3707   -7.2222 O   0  0  0  0  0  0  0  0  0  0  0  0
  -23.1642  -11.7684   -6.7552 C   0  0  0  0  0  0  0  0  0  0  0  0
  -23.2533  -12.3350   -5.4702 N   0  0  0  0  0  0  0  0  0  0  0  0
  -23.5978  -11.4559   -4.2519 S   0  0  0  0  0  0  0  0  0  0  0  0
  -22.9900  -10.1657   -3.9872 O   0  0  0  0  0  0  0  0  0  0  0  0
  -25.3761  -11.2214   -4.2301 C   0  0  0  0  0  0  0  0  0  0  0  0
  -25.7870  -10.0618   -3.3261 C   0  0  0  0  0  0  0  0  0  0  0  0
  -26.4890   -8.9546   -4.0952 C   0  0  0  0  0  0  0  0  0  0  0  0
  -27.6794   -8.5618   -3.4320 O   0  0  0  0  0  0  0  0  0  0  0  0
  -28.2450   -9.3491   -3.3368 H   0  0  0  0  0  0  0  0  0  0  0  0
  -23.2950  -12.4657   -2.8033 C   0  0  0  0  0  0  0  0  0  0  0  0
  -23.0647  -11.6524   -1.5335 C   0  0  0  0  0  0  0  0  0  0  0  0
  -22.4301  -12.4430   -0.3949 C   0  0  0  0  0  0  0  0  0  0  0  0
  -21.9640  -11.5405    0.6018 O   0  0  0  0  0  0  0  0  0  0  0  0
  -21.2340  -11.0271    0.2193 H   0  0  0  0  0  0  0  0  0  0  0  0
  -27.5935   -9.6083   -7.5561 C   0  0  0  0  0  0  0  0  0  0  0  0
  -28.4702   -8.8515   -7.2391 C   0  0  0  0  0  0  0  0  0  0  0  0
  -29.4791   -7.9247   -6.8231 C   0  0  0  0  0  0  0  0  0  0  0  0
  -30.8102   -8.3425   -6.8016 C   0  0  0  0  0  0  0  0  0  0  0  0
  -31.7984   -7.4654   -6.3747 C   0  0  0  0  0  0  0  0  0  0  0  0
  -31.4579   -6.1741   -5.9711 C   0  0  0  0  0  0  0  0  0  0  0  0
  -30.1291   -5.7317   -5.9844 C   0  0  0  0  0  0  0  0  0  0  0  0
  -29.1377   -6.6239   -6.4194 C   0  0  0  0  0  0  0  0  0  0  0  0
  -29.7423   -4.4242   -5.5803 N   0  0  0  0  0  0  0  0  0  0  0  0
  -29.1527   -3.4694   -6.3948 C   0  0  0  0  0  0  0  0  0  0  0  0
  -28.9179   -3.5903   -7.5931 O   0  0  0  0  0  0  0  0  0  0  0  0
  -29.9706   -4.1714   -4.6261 H   0  0  0  0  0  0  0  0  0  0  0  0
  -28.7695   -2.1619   -5.7866 C   0  0  0  0  0  0  0  0  0  0  0  0
  -27.4939   -1.8827   -5.2767 C   0  0  0  0  0  0  0  0  0  0  0  0
  -27.1953   -0.5897   -4.8269 C   0  0  0  0  0  0  0  0  0  0  0  0
  -28.1600    0.4157   -4.8894 C   0  0  0  0  0  0  0  0  0  0  0  0
  -27.8345    1.6494   -4.4770 F   0  0  0  0  0  0  0  0  0  0  0  0
  -29.4297    0.1463   -5.3867 C   0  0  0  0  0  0  0  0  0  0  0  0
  -30.6231    1.3821   -5.4859 Cl  0  0  0  0  0  0  0  0  0  0  0  0
  -29.7348   -1.1376   -5.8308 C   0  0  0  0  0  0  0  0  0  0  0  0
  7  8  2  0  0  0
  8  9  1  0  0  0
  8  1  1  0  0  0
  9 10  2  0  0  0
 10 11  2  0  0  0
 10 12  1  0  0  0
 10 17  1  0  0  0
 12 13  1  0  0  0
 13 14  1  0  0  0
 14 15  1  0  0  0
 15 16  1  0  0  0
 17 18  1  0  0  0
 18 19  1  0  0  0
 19 20  1  0  0  0
 20 21  1  0  0  0
  1  2  1  0  0  0
  1  6  2  0  0  0
  2  3  2  0  0  0
  3  4  1  0  0  0
  4  5  2  0  0  0
  5 22  1  0  0  0
  5  6  1  0  0  0
 22 23  3  0  0  0
 23 24  1  0  0  0
 24 25  1  0  0  0
 24 29  2  0  0  0
 25 26  2  0  0  0
 26 27  1  0  0  0
 27 28  2  0  0  0
 28 30  1  0  0  0
 28 29  1  0  0  0
 30 31  1  0  0  0
 30 33  1  0  0  0
 31 32  2  0  0  0
 31 34  1  0  0  0
 34 35  1  0  0  0
 34 41  2  0  0  0
 35 36  2  0  0  0
 36 37  1  0  0  0
 37 38  1  0  0  0
 37 39  2  0  0  0
 39 40  1  0  0  0
 39 41  1  0  0  0
M  END
> <minimizedAffinity>
-7.08057

$$$$
