CHEMBL205114


 24 26  0  0  0  0  0  0  0  0999 V2000
  -28.3346   -2.2598   -7.2794 C   0  0  0  0  0  0  0  0  0  0  0  0
  -27.8871   -0.9642   -6.2440 S   0  0  0  0  0  0  0  0  0  0  0  0
  -29.1110   -1.4317   -5.1426 C   0  0  0  0  0  0  0  0  0  0  0  0
  -29.8251   -2.4792   -5.4837 N   0  0  0  0  0  0  0  0  0  0  0  0
  -29.3985   -2.9612   -6.7151 C   0  0  0  0  0  0  0  0  0  0  0  0
  -27.2711   -3.6613   -8.8200 O   0  0  0  0  0  0  0  0  0  0  0  0
  -27.6708   -2.5332   -8.5456 C   0  0  0  0  0  0  0  0  0  0  0  0
  -27.4863   -1.4500   -9.3972 N   0  0  0  0  0  0  0  0  0  0  0  0
  -27.6774   -0.5345   -9.0119 H   0  0  0  0  0  0  0  0  0  0  0  0
  -26.8994   -1.5127  -10.6805 C   0  0  0  0  0  0  0  0  0  0  0  0
  -25.5277   -1.3429  -10.9040 C   0  0  0  0  0  0  0  0  0  0  0  0
  -25.0038   -1.3483  -12.1984 C   0  0  0  0  0  0  0  0  0  0  0  0
  -25.8516   -1.5362  -13.2818 C   0  0  0  0  0  0  0  0  0  0  0  0
  -25.2160   -1.4997  -14.8791 Cl  0  0  0  0  0  0  0  0  0  0  0  0
  -27.2133   -1.7488  -13.0767 C   0  0  0  0  0  0  0  0  0  0  0  0
  -27.7348   -1.7517  -11.7764 C   0  0  0  0  0  0  0  0  0  0  0  0
  -30.0667   -4.1829   -7.2858 C   0  0  0  0  0  0  0  0  0  0  0  0
  -30.1160   -5.3815   -6.3398 C   0  0  0  0  0  0  0  0  0  0  0  0
  -30.0864   -6.6806   -7.1114 C   0  0  0  0  0  0  0  0  0  0  0  0
  -31.1495   -7.5830   -7.0313 C   0  0  0  0  0  0  0  0  0  0  0  0
  -31.0682   -8.7717   -7.7415 C   0  0  0  0  0  0  0  0  0  0  0  0
  -30.0129   -9.1216   -8.5072 N   0  0  0  0  0  0  0  0  0  0  0  0
  -28.9889   -8.2435   -8.5586 C   0  0  0  0  0  0  0  0  0  0  0  0
  -28.9766   -7.0301   -7.8865 C   0  0  0  0  0  0  0  0  0  0  0  0
  6  7  2  0  0  0
  7  8  1  0  0  0
  7  1  1  0  0  0
  8 10  1  0  0  0
  8  9  1  0  0  0
 10 11  1  0  0  0
 10 16  2  0  0  0
 11 12  2  0  0  0
 12 13  1  0  0  0
 13 14  1  0  0  0
 13 15  2  0  0  0
 15 16  1  0  0  0
  1  2  1  0  0  0
  1  5  2  0  0  0
  2  3  1  0  0  0
  3  4  2  0  0  0
  4  5  1  0  0  0
  5 17  1  0  0  0
 17 18  1  0  0  0
 18 19  1  0  0  0
 19 20  1  0  0  0
 19 24  2  0  0  0
 20 21  2  0  0  0
 21 22  1  0  0  0
 22 23  2  0  0  0
 23 24  1  0  0  0
M  END
> <minimizedAffinity>
-7.94067

$$$$
