CHEMBL223790


 40 44  0  0  0  0  0  0  0  0999 V2000
  -24.8599   -0.7688  -12.0870 C   0  0  0  0  0  0  0  0  0  0  0  0
  -24.8155   -0.8861  -10.6715 C   0  0  0  0  0  0  0  0  0  0  0  0
  -25.8624   -1.4435   -9.9320 C   0  0  0  0  0  0  0  0  0  0  0  0
  -27.0549   -1.8305  -10.5458 C   0  0  0  0  0  0  0  0  0  0  0  0
  -27.0849   -1.7326  -11.9334 C   0  0  0  0  0  0  0  0  0  0  0  0
  -28.1079   -1.9663  -12.8125 N   0  0  0  0  0  0  0  0  0  0  0  0
  -27.7399   -1.9550  -14.1001 N   0  0  0  0  0  0  0  0  0  0  0  0
  -26.4575   -1.6065  -14.0511 C   0  0  0  0  0  0  0  0  0  0  0  0
  -25.6918   -1.5698  -15.1512 N   0  0  0  0  0  0  0  0  0  0  0  0
  -26.0154   -1.3101  -12.7216 C   0  0  0  0  0  0  0  0  0  0  0  0
  -29.0763   -2.1505  -12.5790 H   0  0  0  0  0  0  0  0  0  0  0  0
  -26.0691   -1.9677  -16.0025 H   0  0  0  0  0  0  0  0  0  0  0  0
  -24.6801   -1.6185  -15.0778 H   0  0  0  0  0  0  0  0  0  0  0  0
  -21.8281    1.2438  -14.4263 C   0  0  0  0  0  0  0  0  0  0  0  0
  -21.8054   -0.1457  -14.2736 C   0  0  0  0  0  0  0  0  0  0  0  0
  -22.7822   -0.7997  -13.5043 C   0  0  0  0  0  0  0  0  0  0  0  0
  -23.7912   -0.0853  -12.8499 C   0  0  0  0  0  0  0  0  0  0  0  0
  -23.7217    1.3212  -12.9342 C   0  0  0  0  0  0  0  0  0  0  0  0
  -22.7707    1.9825  -13.7228 C   0  0  0  0  0  0  0  0  0  0  0  0
  -18.8555    2.6428  -15.9627 N   0  0  0  0  0  0  0  0  0  0  0  0
  -19.6055    1.9899  -15.0031 C   0  0  0  0  0  0  0  0  0  0  0  0
  -19.1502    1.5048  -13.9673 O   0  0  0  0  0  0  0  0  0  0  0  0
  -20.9511    1.8980  -15.3257 N   0  0  0  0  0  0  0  0  0  0  0  0
  -19.3648    3.1415  -16.6723 H   0  0  0  0  0  0  0  0  0  0  0  0
  -21.1300    1.7515  -16.3086 H   0  0  0  0  0  0  0  0  0  0  0  0
  -14.3386    0.5689  -15.7819 C   0  0  0  0  0  0  0  0  0  0  0  0
  -15.2247    1.7834  -15.8452 C   0  0  0  0  0  0  0  0  0  0  0  0
  -14.6364    3.0554  -15.8771 C   0  0  0  0  0  0  0  0  0  0  0  0
  -15.4324    4.1835  -15.9355 C   0  0  0  0  0  0  0  0  0  0  0  0
  -16.8235    4.0634  -15.9588 C   0  0  0  0  0  0  0  0  0  0  0  0
  -17.4430    2.8061  -15.9374 C   0  0  0  0  0  0  0  0  0  0  0  0
  -16.6259    1.6643  -15.8781 C   0  0  0  0  0  0  0  0  0  0  0  0
  -28.1648   -2.3131   -9.9138 O   0  0  0  0  0  0  0  0  0  0  0  0
  -27.9009   -3.1037   -8.7515 C   0  0  0  0  0  0  0  0  0  0  0  0
  -28.5121   -2.4094   -7.5235 C   0  0  0  0  0  0  0  0  0  0  0  0
  -27.5170   -1.6548   -6.7401 N   0  0  0  0  0  0  0  0  0  0  0  0
  -27.4514   -2.1348   -5.3491 C   0  0  0  0  0  0  0  0  0  0  0  0
  -28.5179   -1.3432   -4.6191 C   0  0  0  0  0  0  0  0  0  0  0  0
  -28.4029    0.0320   -5.2438 C   0  0  0  0  0  0  0  0  0  0  0  0
  -27.8385   -0.2178   -6.6347 C   0  0  0  0  0  0  0  0  0  0  0  0
 26 27  1  0  0  0
 27 28  1  0  0  0
 27 32  2  0  0  0
 28 29  2  0  0  0
 29 30  1  0  0  0
 30 31  2  0  0  0
 31 20  1  0  0  0
 31 32  1  0  0  0
 20 21  1  0  0  0
 20 24  1  0  0  0
 21 22  2  0  0  0
 21 23  1  0  0  0
 23 14  1  0  0  0
 23 25  1  0  0  0
 14 15  1  0  0  0
 14 19  2  0  0  0
 15 16  2  0  0  0
 16 17  1  0  0  0
 17  1  1  0  0  0
 17 18  2  0  0  0
  1  2  1  0  0  0
  1 10  2  0  0  0
  2  3  2  0  0  0
  3  4  1  0  0  0
  4 33  1  0  0  0
  4  5  2  0  0  0
 33 34  1  0  0  0
 34 35  1  0  0  0
 35 36  1  0  0  0
 36 37  1  0  0  0
 36 40  1  0  0  0
 37 38  1  0  0  0
 38 39  1  0  0  0
 39 40  1  0  0  0
  5  6  1  0  0  0
  5 10  1  0  0  0
  6  7  1  0  0  0
  6 11  1  0  0  0
  7  8  2  0  0  0
  8  9  1  0  0  0
  8 10  1  0  0  0
  9 12  1  0  0  0
  9 13  1  0  0  0
 18 19  1  0  0  0
M  END
> <minimizedAffinity>
-10.07559

$$$$
