CHEMBL488811


 36 40  0  0  0  0  0  0  0  0999 V2000
  -13.4069   -2.8802  -14.8046 C   0  0  0  0  0  0  0  0  0  0  0  0
  -13.4238   -1.5507  -15.0183 C   0  0  0  0  0  0  0  0  0  0  0  0
  -13.2198   -1.1788  -16.4675 C   0  0  0  0  0  0  0  0  0  0  0  0
  -13.2008   -2.4443  -17.0878 N   0  0  0  0  0  0  0  0  0  0  0  0
  -13.2667   -3.4633  -16.1772 C   0  0  0  0  0  0  0  0  0  0  0  0
  -13.2682   -4.6434  -16.4847 O   0  0  0  0  0  0  0  0  0  0  0  0
  -13.1766   -2.6211  -18.0797 H   0  0  0  0  0  0  0  0  0  0  0  0
  -13.7707   -0.4163  -14.2365 C   0  0  0  0  0  0  0  0  0  0  0  0
  -15.0596    0.0834  -14.2733 C   0  0  0  0  0  0  0  0  0  0  0  0
  -14.9293    1.4399  -14.4922 N   0  0  0  0  0  0  0  0  0  0  0  0
  -13.6114    1.8277  -14.2970 C   0  0  0  0  0  0  0  0  0  0  0  0
  -12.9660    3.0565  -14.5118 C   0  0  0  0  0  0  0  0  0  0  0  0
  -11.5959    3.1357  -14.2527 C   0  0  0  0  0  0  0  0  0  0  0  0
  -10.8948    2.0360  -13.7699 C   0  0  0  0  0  0  0  0  0  0  0  0
  -11.5264    0.7945  -13.6360 C   0  0  0  0  0  0  0  0  0  0  0  0
  -12.9004    0.6771  -13.9350 C   0  0  0  0  0  0  0  0  0  0  0  0
  -15.9088    2.2077  -15.2589 C   0  0  0  0  0  0  0  0  0  0  0  0
  -16.8690    1.3386  -15.8391 O   0  0  0  0  0  0  0  0  0  0  0  0
  -18.1670    1.6282  -15.4967 C   0  0  0  0  0  0  0  0  0  0  0  0
  -19.1346    0.6949  -15.1072 C   0  0  0  0  0  0  0  0  0  0  0  0
  -20.4323    1.1039  -14.7947 C   0  0  0  0  0  0  0  0  0  0  0  0
  -20.7723    2.4515  -14.8665 C   0  0  0  0  0  0  0  0  0  0  0  0
  -19.8157    3.3881  -15.2510 C   0  0  0  0  0  0  0  0  0  0  0  0
  -18.5178    2.9776  -15.5664 C   0  0  0  0  0  0  0  0  0  0  0  0
  -12.5309   -4.8253  -11.6742 C   0  0  0  0  0  0  0  0  0  0  0  0
  -12.4472   -4.1698  -12.9113 C   0  0  0  0  0  0  0  0  0  0  0  0
  -13.5760   -3.6774  -13.5809 C   0  0  0  0  0  0  0  0  0  0  0  0
  -14.8280   -3.9008  -13.0071 C   0  0  0  0  0  0  0  0  0  0  0  0
  -14.9437   -4.6040  -11.7995 C   0  0  0  0  0  0  0  0  0  0  0  0
  -13.7944   -5.0411  -11.1045 C   0  0  0  0  0  0  0  0  0  0  0  0
  -10.9730   -6.6159  -11.4571 C   0  0  0  0  0  0  0  0  0  0  0  0
  -11.4161   -5.3242  -11.0465 O   0  0  0  0  0  0  0  0  0  0  0  0
  -16.1608   -4.8408  -11.2007 O   0  0  0  0  0  0  0  0  0  0  0  0
  -17.1142   -5.5090  -12.0134 C   0  0  0  0  0  0  0  0  0  0  0  0
  -14.0358   -5.7094   -9.9259 O   0  0  0  0  0  0  0  0  0  0  0  0
  -13.7964   -4.9934   -8.7200 C   0  0  0  0  0  0  0  0  0  0  0  0
 31 32  1  0  0  0
 32 25  1  0  0  0
 25 26  1  0  0  0
 25 30  2  0  0  0
 26 27  2  0  0  0
 27  1  1  0  0  0
 27 28  1  0  0  0
  1  2  2  0  0  0
  1  5  1  0  0  0
  2  8  1  0  0  0
  2  3  1  0  0  0
  8  9  2  0  0  0
  8 16  1  0  0  0
  9 10  1  0  0  0
 10 17  1  0  0  0
 10 11  1  0  0  0
 17 18  1  0  0  0
 18 19  1  0  0  0
 19 20  1  0  0  0
 19 24  2  0  0  0
 20 21  2  0  0  0
 21 22  1  0  0  0
 22 23  2  0  0  0
 23 24  1  0  0  0
 11 12  1  0  0  0
 11 16  2  0  0  0
 12 13  2  0  0  0
 13 14  1  0  0  0
 14 15  2  0  0  0
 15 16  1  0  0  0
  3  4  1  0  0  0
  4  5  1  0  0  0
  4  7  1  0  0  0
  5  6  2  0  0  0
 28 29  2  0  0  0
 29 33  1  0  0  0
 29 30  1  0  0  0
 33 34  1  0  0  0
 30 35  1  0  0  0
 35 36  1  0  0  0
M  END
> <minimizedAffinity>
-7.75087

$$$$
