CHEMBL257858


 49 53  0  0  0  0  0  0  0  0999 V2000
  -22.3562   -0.3927  -13.7519 C   0  0  0  0  0  0  0  0  0  0  0  0
  -21.6604   -1.2023  -14.3658 O   0  0  0  0  0  0  0  0  0  0  0  0
  -22.0302    0.9304  -13.5362 N   0  0  0  0  0  0  0  0  0  0  0  0
  -22.6196    1.4557  -12.8970 H   0  0  0  0  0  0  0  0  0  0  0  0
  -20.8787    1.5946  -14.0335 C   0  0  0  0  0  0  0  0  0  0  0  0
  -19.6558    0.9191  -14.1838 C   0  0  0  0  0  0  0  0  0  0  0  0
  -18.5192    1.5850  -14.6411 C   0  0  0  0  0  0  0  0  0  0  0  0
  -18.6166    2.9310  -15.0069 C   0  0  0  0  0  0  0  0  0  0  0  0
  -19.8286    3.6073  -14.8902 C   0  0  0  0  0  0  0  0  0  0  0  0
  -20.9690    2.9544  -14.3969 C   0  0  0  0  0  0  0  0  0  0  0  0
  -22.2368    3.7518  -14.2504 C   0  0  0  0  0  0  0  0  0  0  0  0
  -17.1960    0.9205  -14.8054 C   0  0  0  0  0  0  0  0  0  0  0  0
  -16.6665    1.0128  -15.9080 O   0  0  0  0  0  0  0  0  0  0  0  0
  -16.6635    0.2612  -13.7079 N   0  0  0  0  0  0  0  0  0  0  0  0
  -17.2215    0.1723  -12.8646 H   0  0  0  0  0  0  0  0  0  0  0  0
  -15.3882   -0.3592  -13.6576 C   0  0  0  0  0  0  0  0  0  0  0  0
  -14.1873    0.3555  -13.6697 C   0  0  0  0  0  0  0  0  0  0  0  0
  -12.9585   -0.3069  -13.6485 C   0  0  0  0  0  0  0  0  0  0  0  0
  -12.9136   -1.6970  -13.6054 C   0  0  0  0  0  0  0  0  0  0  0  0
  -14.1022   -2.4389  -13.5603 C   0  0  0  0  0  0  0  0  0  0  0  0
  -15.3241   -1.7583  -13.5799 C   0  0  0  0  0  0  0  0  0  0  0  0
  -16.4673   -2.4621  -13.5448 F   0  0  0  0  0  0  0  0  0  0  0  0
  -14.0832   -3.9356  -13.4972 C   0  0  0  0  0  0  0  0  0  0  0  0
  -14.5865   -4.4244  -12.3251 F   0  0  0  0  0  0  0  0  0  0  0  0
  -14.8238   -4.5196  -14.4786 F   0  0  0  0  0  0  0  0  0  0  0  0
  -12.8308   -4.4587  -13.5984 F   0  0  0  0  0  0  0  0  0  0  0  0
  -24.7874   -1.1814  -13.8418 C   0  0  0  0  0  0  0  0  0  0  0  0
  -25.9002   -1.6083  -13.2173 N   0  0  0  0  0  0  0  0  0  0  0  0
  -25.8462   -1.8179  -11.8928 C   0  0  0  0  0  0  0  0  0  0  0  0
  -24.7426   -1.6312  -11.1652 N   0  0  0  0  0  0  0  0  0  0  0  0
  -23.6629   -1.1501  -11.8193 C   0  0  0  0  0  0  0  0  0  0  0  0
  -23.6181   -0.8973  -13.1765 C   0  0  0  0  0  0  0  0  0  0  0  0
  -26.2120   -0.9067  -15.6787 C   0  0  0  0  0  0  0  0  0  0  0  0
  -24.8614   -0.9929  -15.2100 O   0  0  0  0  0  0  0  0  0  0  0  0
  -26.9637   -2.2942  -11.2257 N   0  0  0  0  0  0  0  0  0  0  0  0
  -27.5117   -2.9170  -11.7986 H   0  0  0  0  0  0  0  0  0  0  0  0
  -27.2386   -2.2709   -9.8566 C   0  0  0  0  0  0  0  0  0  0  0  0
  -27.5163   -3.4648   -9.1983 C   0  0  0  0  0  0  0  0  0  0  0  0
  -27.9119   -3.4572   -7.8588 C   0  0  0  0  0  0  0  0  0  0  0  0
  -28.0348   -2.2677   -7.1239 C   0  0  0  0  0  0  0  0  0  0  0  0
  -27.7122   -1.0798   -7.7807 C   0  0  0  0  0  0  0  0  0  0  0  0
  -27.3369   -1.0803   -9.1289 C   0  0  0  0  0  0  0  0  0  0  0  0
  -28.4127   -2.3217   -5.7969 N   0  0  0  0  0  0  0  0  0  0  0  0
  -27.7477   -3.2018   -4.8269 C   0  0  0  0  0  0  0  0  0  0  0  0
  -28.7752   -3.5979   -3.7366 C   0  0  0  0  0  0  0  0  0  0  0  0
  -29.3885   -2.4237   -3.0686 N   0  0  0  0  0  0  0  0  0  0  0  0
  -30.3963   -2.8516   -2.1024 C   0  0  0  0  0  0  0  0  0  0  0  0
  -29.9990   -1.5418   -4.0919 C   0  0  0  0  0  0  0  0  0  0  0  0
  -28.9901   -1.1142   -5.1792 C   0  0  0  0  0  0  0  0  0  0  0  0
 33 34  1  0  0  0
 34 27  1  0  0  0
 27 28  1  0  0  0
 27 32  2  0  0  0
 28 29  2  0  0  0
 29 35  1  0  0  0
 29 30  1  0  0  0
 35 37  1  0  0  0
 35 36  1  0  0  0
 37 38  1  0  0  0
 37 42  2  0  0  0
 38 39  2  0  0  0
 39 40  1  0  0  0
 40 43  1  0  0  0
 40 41  2  0  0  0
 43 44  1  0  0  0
 43 49  1  0  0  0
 44 45  1  0  0  0
 45 46  1  0  0  0
 46 47  1  0  0  0
 46 48  1  0  0  0
 48 49  1  0  0  0
 41 42  1  0  0  0
 30 31  2  0  0  0
 31 32  1  0  0  0
 32  1  1  0  0  0
  1  2  2  0  0  0
  1  3  1  0  0  0
  3  5  1  0  0  0
  3  4  1  0  0  0
  5  6  1  0  0  0
  5 10  2  0  0  0
  6  7  2  0  0  0
  7 12  1  0  0  0
  7  8  1  0  0  0
 12 13  2  0  0  0
 12 14  1  0  0  0
 14 16  1  0  0  0
 14 15  1  0  0  0
 16 17  1  0  0  0
 16 21  2  0  0  0
 17 18  2  0  0  0
 18 19  1  0  0  0
 19 20  2  0  0  0
 20 23  1  0  0  0
 20 21  1  0  0  0
 23 24  1  0  0  0
 23 25  1  0  0  0
 23 26  1  0  0  0
 21 22  1  0  0  0
  8  9  2  0  0  0
  9 10  1  0  0  0
 10 11  1  0  0  0
M  END
> <minimizedAffinity>
-8.78098

$$$$
