CHEMBL403606


 35 40  0  0  0  0  0  0  0  0999 V2000
  -29.8457   -4.9793   -5.7755 N   0  0  0  0  0  0  0  0  0  0  0  0
  -29.3223   -4.0130   -6.6688 C   0  0  0  0  0  0  0  0  0  0  0  0
  -29.5859   -2.6397   -6.8392 C   0  0  0  0  0  0  0  0  0  0  0  0
  -28.9310   -1.9448   -7.8793 C   0  0  0  0  0  0  0  0  0  0  0  0
  -28.0195   -2.5538   -8.7286 C   0  0  0  0  0  0  0  0  0  0  0  0
  -27.7787   -3.9248   -8.5558 C   0  0  0  0  0  0  0  0  0  0  0  0
  -28.4607   -4.6615   -7.5624 C   0  0  0  0  0  0  0  0  0  0  0  0
  -28.6484   -5.9871   -7.2430 C   0  0  0  0  0  0  0  0  0  0  0  0
  -28.3326   -7.0205   -8.1385 C   0  0  0  0  0  0  0  0  0  0  0  0
  -29.0085   -8.2336   -7.9235 C   0  0  0  0  0  0  0  0  0  0  0  0
  -29.8572   -8.4707   -6.8357 C   0  0  0  0  0  0  0  0  0  0  0  0
  -29.6208   -7.5933   -5.7248 C   0  0  0  0  0  0  0  0  0  0  0  0
  -29.3634   -6.2538   -6.1053 C   0  0  0  0  0  0  0  0  0  0  0  0
  -28.9010   -8.3399   -4.5247 C   0  0  0  0  0  0  0  0  0  0  0  0
  -28.3632   -9.7919   -4.8906 C   0  0  0  0  0  0  0  0  0  0  0  0
  -29.4964  -10.5131   -5.5307 C   0  0  0  0  0  0  0  0  0  0  0  0
  -30.1235  -11.6032   -5.0894 N   0  0  0  0  0  0  0  0  0  0  0  0
  -31.3084  -11.5480   -5.7505 N   0  0  0  0  0  0  0  0  0  0  0  0
  -32.3661  -12.4653   -5.3998 C   0  0  0  0  0  0  0  0  0  0  0  0
  -31.4532  -10.4242   -6.5281 C   0  0  0  0  0  0  0  0  0  0  0  0
  -30.2223   -9.8229   -6.5113 C   0  0  0  0  0  0  0  0  0  0  0  0
  -28.5408   -9.1677   -8.9194 C   0  0  0  0  0  0  0  0  0  0  0  0
  -28.7616  -10.3508   -9.1392 O   0  0  0  0  0  0  0  0  0  0  0  0
  -27.6189   -8.4405   -9.6659 N   0  0  0  0  0  0  0  0  0  0  0  0
  -27.4600   -7.0511   -9.3067 C   0  0  0  0  0  0  0  0  0  0  0  0
  -27.0851   -8.9048  -10.3851 H   0  0  0  0  0  0  0  0  0  0  0  0
  -27.2801   -1.8761   -9.8545 C   0  0  0  0  0  0  0  0  0  0  0  0
  -28.0533   -1.2212  -10.9818 C   0  0  0  0  0  0  0  0  0  0  0  0
  -25.9682   -1.8534   -9.8512 N   0  0  0  0  0  0  0  0  0  0  0  0
  -25.4571   -1.1953  -10.9837 O   0  0  0  0  0  0  0  0  0  0  0  0
  -24.1901   -1.7455  -11.3256 C   0  0  0  0  0  0  0  0  0  0  0  0
  -30.9353   -4.6938   -4.8345 C   0  0  0  0  0  0  0  0  0  0  0  0
  -30.4231   -4.3871   -3.4171 C   0  0  0  0  0  0  0  0  0  0  0  0
  -28.7347   -2.5206   -3.2180 C   0  0  0  0  0  0  0  0  0  0  0  0
  -30.2139   -2.8922   -3.1358 C   0  0  0  0  0  0  0  0  0  0  0  0
 34 35  1  0  0  0
 35 33  1  0  0  0
 33 32  1  0  0  0
 32  1  1  0  0  0
  1  2  1  0  0  0
  1 13  1  0  0  0
  2  3  1  0  0  0
  2  7  2  0  0  0
  3  4  2  0  0  0
  4  5  1  0  0  0
  5 27  1  0  0  0
  5  6  2  0  0  0
 27 28  1  0  0  0
 27 29  2  0  0  0
 29 30  1  0  0  0
 30 31  1  0  0  0
  6  7  1  0  0  0
  7  8  1  0  0  0
  8  9  1  0  0  0
  8 13  2  0  0  0
  9 10  2  0  0  0
  9 25  1  0  0  0
 10 11  1  0  0  0
 10 22  1  0  0  0
 11 12  2  0  0  0
 11 21  1  0  0  0
 12 13  1  0  0  0
 12 14  1  0  0  0
 14 15  1  0  0  0
 15 16  1  0  0  0
 16 17  2  0  0  0
 16 21  1  0  0  0
 17 18  1  0  0  0
 18 19  1  0  0  0
 18 20  1  0  0  0
 20 21  2  0  0  0
 22 23  2  0  0  0
 22 24  1  0  0  0
 24 25  1  0  0  0
 24 26  1  0  0  0
M  END
> <minimizedAffinity>
-7.30829

$$$$
