CHEMBL3972800


 48 51  0  0  0  0  0  0  0  0999 V2000
  -28.8484   -7.7379   -4.4697 C   0  0  0  0  0  0  0  0  0  0  0  0
  -30.1649   -7.5520   -4.0962 C   0  0  0  0  0  0  0  0  0  0  0  0
  -30.4838   -6.1923   -3.8329 C   0  0  0  0  0  0  0  0  0  0  0  0
  -31.7038   -5.7519   -3.4267 N   0  0  0  0  0  0  0  0  0  0  0  0
  -31.8009   -4.4341   -3.1865 C   0  0  0  0  0  0  0  0  0  0  0  0
  -30.7771   -3.5215   -3.3462 C   0  0  0  0  0  0  0  0  0  0  0  0
  -29.5479   -3.9609   -3.8486 C   0  0  0  0  0  0  0  0  0  0  0  0
  -29.3958   -5.3447   -4.0458 C   0  0  0  0  0  0  0  0  0  0  0  0
  -28.0166   -6.2443   -4.5497 S   0  0  0  0  0  0  0  0  0  0  0  0
  -27.3805   -9.0547   -5.8533 N   0  0  0  0  0  0  0  0  0  0  0  0
  -28.2173   -9.0164   -4.7619 C   0  0  0  0  0  0  0  0  0  0  0  0
  -28.4104  -10.0196   -4.0784 O   0  0  0  0  0  0  0  0  0  0  0  0
  -27.2965   -8.2325   -6.4421 H   0  0  0  0  0  0  0  0  0  0  0  0
  -26.6727  -10.2696   -6.2474 C   0  0  0  0  0  0  0  0  0  0  0  0
  -24.2556   -9.8758   -6.5427 N   0  0  0  0  0  0  0  0  0  0  0  0
  -25.2628  -10.1744   -5.6455 C   0  0  0  0  0  0  0  0  0  0  0  0
  -25.0457  -10.4524   -4.4652 O   0  0  0  0  0  0  0  0  0  0  0  0
  -24.5218   -9.4131   -7.4069 H   0  0  0  0  0  0  0  0  0  0  0  0
  -22.0062  -10.8872   -6.3683 C   0  0  0  0  0  0  0  0  0  0  0  0
  -22.9014   -9.7037   -6.0590 C   0  0  0  0  0  0  0  0  0  0  0  0
  -26.6135  -10.3565   -7.7800 C   0  0  0  0  0  0  0  0  0  0  0  0
  -27.6427   -9.4847   -8.4909 C   0  0  0  0  0  0  0  0  0  0  0  0
  -27.0412   -8.7762   -9.6767 C   0  0  0  0  0  0  0  0  0  0  0  0
  -26.7694   -9.3503  -10.7218 O   0  0  0  0  0  0  0  0  0  0  0  0
  -26.8864   -7.4544   -9.5028 O   0  0  0  0  0  0  0  0  0  0  0  0
  -27.1960   -7.1148   -8.6365 H   0  0  0  0  0  0  0  0  0  0  0  0
  -28.4984   -3.0954   -4.1130 O   0  0  0  0  0  0  0  0  0  0  0  0
  -28.2948   -2.7004   -5.4204 C   0  0  0  0  0  0  0  0  0  0  0  0
  -28.3925   -3.5708   -6.5071 C   0  0  0  0  0  0  0  0  0  0  0  0
  -28.3018   -3.0826   -7.8085 C   0  0  0  0  0  0  0  0  0  0  0  0
  -28.0654   -1.7262   -8.0497 C   0  0  0  0  0  0  0  0  0  0  0  0
  -27.8310   -0.8901   -6.9562 C   0  0  0  0  0  0  0  0  0  0  0  0
  -27.5408    0.4039   -7.1575 F   0  0  0  0  0  0  0  0  0  0  0  0
  -27.9555   -1.3640   -5.6446 C   0  0  0  0  0  0  0  0  0  0  0  0
  -28.0614   -1.1978   -9.3665 N   0  0  0  0  0  0  0  0  0  0  0  0
  -27.1067   -1.5707  -10.2959 C   0  0  0  0  0  0  0  0  0  0  0  0
  -26.3044   -2.4839  -10.1172 O   0  0  0  0  0  0  0  0  0  0  0  0
  -27.1230   -0.7769  -11.4347 N   0  0  0  0  0  0  0  0  0  0  0  0
  -28.9498   -0.8831   -9.7361 H   0  0  0  0  0  0  0  0  0  0  0  0
  -27.3302    0.1966  -11.2427 H   0  0  0  0  0  0  0  0  0  0  0  0
  -26.0958   -0.9892  -12.3949 C   0  0  0  0  0  0  0  0  0  0  0  0
  -24.8068   -0.4801  -12.1945 C   0  0  0  0  0  0  0  0  0  0  0  0
  -23.8699   -0.4752  -13.2349 C   0  0  0  0  0  0  0  0  0  0  0  0
  -22.5286    0.1698  -13.0414 C   0  0  0  0  0  0  0  0  0  0  0  0
  -24.2336   -1.0050  -14.4795 C   0  0  0  0  0  0  0  0  0  0  0  0
  -25.4947   -1.5798  -14.6623 C   0  0  0  0  0  0  0  0  0  0  0  0
  -26.4098   -1.5884  -13.6133 C   0  0  0  0  0  0  0  0  0  0  0  0
  -27.6401   -2.0843  -13.8172 F   0  0  0  0  0  0  0  0  0  0  0  0
 19 20  1  0  0  0
 20 15  1  0  0  0
 15 16  1  0  0  0
 15 18  1  0  0  0
 16 17  2  0  0  0
 14 10  1  0  0  0
 14 21  1  0  0  0
 14 16  1  0  0  0
 21 22  1  0  0  0
 22 23  1  0  0  0
 23 24  2  0  0  0
 23 25  1  0  0  0
 25 26  1  0  0  0
 10 11  1  0  0  0
 10 13  1  0  0  0
 11 12  2  0  0  0
 11  1  1  0  0  0
  1  2  2  0  0  0
  1  9  1  0  0  0
  2  3  1  0  0  0
  3  4  1  0  0  0
  3  8  2  0  0  0
  4  5  2  0  0  0
  5  6  1  0  0  0
  6  7  2  0  0  0
  7 27  1  0  0  0
  7  8  1  0  0  0
 27 28  1  0  0  0
 28 29  1  0  0  0
 28 34  2  0  0  0
 29 30  2  0  0  0
 30 31  1  0  0  0
 31 35  1  0  0  0
 31 32  2  0  0  0
 35 36  1  0  0  0
 35 39  1  0  0  0
 36 37  2  0  0  0
 36 38  1  0  0  0
 38 41  1  0  0  0
 38 40  1  0  0  0
 41 42  1  0  0  0
 41 47  2  0  0  0
 42 43  2  0  0  0
 43 44  1  0  0  0
 43 45  1  0  0  0
 45 46  2  0  0  0
 46 47  1  0  0  0
 47 48  1  0  0  0
 32 33  1  0  0  0
 32 34  1  0  0  0
  8  9  1  0  0  0
M  END
> <minimizedAffinity>
-10.65362

$$$$
