CHEMBL1241776


 27 30  0  0  0  0  0  0  0  0999 V2000
  -30.5297   -8.2853   -6.7336 N   0  0  0  0  0  0  0  0  0  0  0  0
  -30.4811   -6.9801   -7.0630 N   0  0  0  0  0  0  0  0  0  0  0  0
  -29.4531   -6.4683   -6.3451 C   0  0  0  0  0  0  0  0  0  0  0  0
  -28.7574   -7.5136   -5.6625 C   0  0  0  0  0  0  0  0  0  0  0  0
  -27.6881   -7.6667   -4.7751 C   0  0  0  0  0  0  0  0  0  0  0  0
  -26.8982   -6.6237   -4.3043 N   0  0  0  0  0  0  0  0  0  0  0  0
  -27.3991   -8.8960   -4.3033 N   0  0  0  0  0  0  0  0  0  0  0  0
  -28.1717   -9.9345   -4.6796 C   0  0  0  0  0  0  0  0  0  0  0  0
  -29.2438   -9.9079   -5.4811 N   0  0  0  0  0  0  0  0  0  0  0  0
  -29.4820   -8.6679   -5.9434 C   0  0  0  0  0  0  0  0  0  0  0  0
  -27.3964   -5.7578   -4.1598 H   0  0  0  0  0  0  0  0  0  0  0  0
  -26.3509   -6.9411   -3.5124 H   0  0  0  0  0  0  0  0  0  0  0  0
  -29.3800   -4.9922   -6.2055 C   0  0  0  0  0  0  0  0  0  0  0  0
  -30.1545   -4.4917   -5.1473 C   0  0  0  0  0  0  0  0  0  0  0  0
  -30.1877   -3.1483   -4.8208 C   0  0  0  0  0  0  0  0  0  0  0  0
  -29.4576   -2.2335   -5.5578 C   0  0  0  0  0  0  0  0  0  0  0  0
  -29.5798   -0.8928   -5.1748 N   0  0  0  0  0  0  0  0  0  0  0  0
  -28.9886   -0.0139   -5.9026 C   0  0  0  0  0  0  0  0  0  0  0  0
  -28.2302   -0.3191   -6.9876 N   0  0  0  0  0  0  0  0  0  0  0  0
  -27.9557   -1.6175   -7.3827 C   0  0  0  0  0  0  0  0  0  0  0  0
  -27.1610   -1.8683   -8.2695 O   0  0  0  0  0  0  0  0  0  0  0  0
  -28.6828   -2.6854   -6.6313 C   0  0  0  0  0  0  0  0  0  0  0  0
  -28.6279   -4.0707   -6.9665 C   0  0  0  0  0  0  0  0  0  0  0  0
  -27.7712    0.4252   -7.4976 H   0  0  0  0  0  0  0  0  0  0  0  0
  -32.9899   -8.3615   -7.1728 C   0  0  0  0  0  0  0  0  0  0  0  0
  -31.6556   -9.1191   -7.1562 C   0  0  0  0  0  0  0  0  0  0  0  0
  -31.4100   -9.7750   -8.5148 C   0  0  0  0  0  0  0  0  0  0  0  0
 25 26  1  0  0  0
 26 27  1  0  0  0
 26  1  1  0  0  0
  1  2  1  0  0  0
  1 10  1  0  0  0
  2  3  2  0  0  0
  3 13  1  0  0  0
  3  4  1  0  0  0
 13 14  1  0  0  0
 13 23  2  0  0  0
 14 15  2  0  0  0
 15 16  1  0  0  0
 16 17  1  0  0  0
 16 22  2  0  0  0
 17 18  2  0  0  0
 18 19  1  0  0  0
 19 20  1  0  0  0
 19 24  1  0  0  0
 20 21  2  0  0  0
 20 22  1  0  0  0
 22 23  1  0  0  0
  4  5  1  0  0  0
  4 10  2  0  0  0
  5  6  1  0  0  0
  5  7  2  0  0  0
  6 11  1  0  0  0
  6 12  1  0  0  0
  7  8  1  0  0  0
  8  9  2  0  0  0
  9 10  1  0  0  0
M  END
> <minimizedAffinity>
-8.45374

$$$$
