CHEMBL3976721


 39 43  0  0  0  0  0  0  0  0999 V2000
  -12.6494   -3.4173  -13.4670 N   0  0  0  0  0  0  0  0  0  0  0  0
  -12.9390   -4.2339  -14.6315 C   0  0  0  0  0  0  0  0  0  0  0  0
  -12.7829   -5.5625  -14.4315 C   0  0  0  0  0  0  0  0  0  0  0  0
  -12.9730   -6.4067  -15.5030 C   0  0  0  0  0  0  0  0  0  0  0  0
  -13.2187   -5.9201  -16.7630 C   0  0  0  0  0  0  0  0  0  0  0  0
  -12.5042   -6.7623  -17.3948 N   0  0  0  0  0  0  0  0  0  0  0  0
  -13.2208   -7.6963  -17.9295 C   0  0  0  0  0  0  0  0  0  0  0  0
  -13.7786   -7.5266  -19.1467 C   0  0  0  0  0  0  0  0  0  0  0  0
  -13.9839   -5.9181  -18.7609 N   0  0  0  0  0  0  0  0  0  0  0  0
  -13.6529   -4.8786  -17.3857 C   0  0  0  0  0  0  0  0  0  0  0  0
  -13.3249   -3.8020  -16.0180 C   0  0  0  0  0  0  0  0  0  0  0  0
  -13.3406   -9.2993  -19.3605 C   0  0  0  0  0  0  0  0  0  0  0  0
  -14.0045  -10.6659  -19.0693 C   0  0  0  0  0  0  0  0  0  0  0  0
  -13.3853  -11.8206  -19.4622 N   0  0  0  0  0  0  0  0  0  0  0  0
  -12.2663  -11.4395  -20.0962 N   0  0  0  0  0  0  0  0  0  0  0  0
  -11.3778  -12.4535  -20.7816 C   0  0  0  0  0  0  0  0  0  0  0  0
  -12.1842   -9.9758  -20.0061 C   0  0  0  0  0  0  0  0  0  0  0  0
  -13.2627   -3.5488   -9.6976 C   0  0  0  0  0  0  0  0  0  0  0  0
  -14.5383   -3.8716   -9.6249 C   0  0  0  0  0  0  0  0  0  0  0  0
  -15.2291   -4.1228  -10.8168 C   0  0  0  0  0  0  0  0  0  0  0  0
  -14.5842   -4.0310  -12.0610 C   0  0  0  0  0  0  0  0  0  0  0  0
  -13.2832   -3.6206  -12.1925 C   0  0  0  0  0  0  0  0  0  0  0  0
  -12.6867   -3.5742  -10.9328 C   0  0  0  0  0  0  0  0  0  0  0  0
  -11.3311   -3.5951   -8.2703 C   0  0  0  0  0  0  0  0  0  0  0  0
  -12.5839   -3.0643   -8.6439 O   0  0  0  0  0  0  0  0  0  0  0  0
  -16.5452   -4.3869  -10.8066 O   0  0  0  0  0  0  0  0  0  0  0  0
  -16.9422   -5.3146  -11.8148 C   0  0  0  0  0  0  0  0  0  0  0  0
  -12.1460   -2.0229  -13.8245 C   0  0  0  0  0  0  0  0  0  0  0  0
  -13.3178   -1.0983  -14.1108 C   0  0  0  0  0  0  0  0  0  0  0  0
  -14.3232   -0.3051  -14.3564 C   0  0  0  0  0  0  0  0  0  0  0  0
  -15.4450    0.6029  -14.7164 C   0  0  0  0  0  0  0  0  0  0  0  0
  -16.7633    0.2626  -14.5316 C   0  0  0  0  0  0  0  0  0  0  0  0
  -17.7731    1.2124  -14.3912 C   0  0  0  0  0  0  0  0  0  0  0  0
  -17.5983    2.3577  -15.0910 C   0  0  0  0  0  0  0  0  0  0  0  0
  -16.3055    2.6081  -15.5241 C   0  0  0  0  0  0  0  0  0  0  0  0
  -15.2023    1.8223  -15.2134 N   0  0  0  0  0  0  0  0  0  0  0  0
  -16.1226    3.8333  -16.3771 C   0  0  0  0  0  0  0  0  0  0  0  0
  -16.5289    5.0050  -15.6947 O   0  0  0  0  0  0  0  0  0  0  0  0
  -17.4084    4.7894  -15.3324 H   0  0  0  0  0  0  0  0  0  0  0  0
 24 25  1  0  0  0
 25 18  1  0  0  0
 18 19  1  0  0  0
 18 23  2  0  0  0
 19 20  2  0  0  0
 20 26  1  0  0  0
 20 21  1  0  0  0
 26 27  1  0  0  0
 21 22  2  0  0  0
 22  1  1  0  0  0
 22 23  1  0  0  0
  1 28  1  0  0  0
  1  2  1  0  0  0
 28 29  1  0  0  0
 29 30  3  0  0  0
 30 31  1  0  0  0
 31 32  1  0  0  0
 31 36  2  0  0  0
 32 33  2  0  0  0
 33 34  1  0  0  0
 34 35  2  0  0  0
 35 37  1  0  0  0
 35 36  1  0  0  0
 37 38  1  0  0  0
 38 39  1  0  0  0
  2  3  1  0  0  0
  2 11  2  0  0  0
  3  4  2  0  0  0
  4  5  1  0  0  0
  5  6  1  0  0  0
  5 10  2  0  0  0
  6  7  2  0  0  0
  7  8  1  0  0  0
  8 12  1  0  0  0
  8  9  2  0  0  0
 12 13  1  0  0  0
 12 17  2  0  0  0
 13 14  2  0  0  0
 14 15  1  0  0  0
 15 16  1  0  0  0
 15 17  1  0  0  0
  9 10  1  0  0  0
 10 11  1  0  0  0
M  END
> <minimizedAffinity>
-7.71011

$$$$
