CHEMBL3676390


 35 37  0  0  0  0  0  0  0  0999 V2000
  -26.7554   -8.9878   -5.0667 C   0  0  0  0  0  0  0  0  0  0  0  0
  -27.6065   -8.0354   -4.5032 C   0  0  0  0  0  0  0  0  0  0  0  0
  -28.8661   -7.7741   -5.0828 C   0  0  0  0  0  0  0  0  0  0  0  0
  -29.7271   -6.7429   -4.6849 C   0  0  0  0  0  0  0  0  0  0  0  0
  -30.9108   -6.5378   -5.2914 N   0  0  0  0  0  0  0  0  0  0  0  0
  -31.2251   -7.3398   -6.3070 C   0  0  0  0  0  0  0  0  0  0  0  0
  -30.4594   -8.3162   -6.7968 N   0  0  0  0  0  0  0  0  0  0  0  0
  -29.2870   -8.5214   -6.1923 C   0  0  0  0  0  0  0  0  0  0  0  0
  -28.4401   -9.4942   -6.7077 C   0  0  0  0  0  0  0  0  0  0  0  0
  -27.1854   -9.7604   -6.1517 C   0  0  0  0  0  0  0  0  0  0  0  0
  -24.9374  -10.0515   -3.8182 C   0  0  0  0  0  0  0  0  0  0  0  0
  -23.7286  -10.2396   -3.7247 O   0  0  0  0  0  0  0  0  0  0  0  0
  -25.4255   -9.0402   -4.6121 N   0  0  0  0  0  0  0  0  0  0  0  0
  -24.7120   -8.7744   -5.2836 H   0  0  0  0  0  0  0  0  0  0  0  0
  -25.9642  -12.2255   -3.4098 C   0  0  0  0  0  0  0  0  0  0  0  0
  -25.9297  -10.9176   -3.1283 C   0  0  0  0  0  0  0  0  0  0  0  0
  -29.3288   -5.8357   -3.6656 N   0  0  0  0  0  0  0  0  0  0  0  0
  -29.8988   -5.9611   -2.8319 H   0  0  0  0  0  0  0  0  0  0  0  0
  -29.0326   -4.4715   -3.9017 C   0  0  0  0  0  0  0  0  0  0  0  0
  -27.7937   -4.0821   -4.4339 C   0  0  0  0  0  0  0  0  0  0  0  0
  -27.5370   -2.7513   -4.7596 C   0  0  0  0  0  0  0  0  0  0  0  0
  -28.5156   -1.7876   -4.5250 C   0  0  0  0  0  0  0  0  0  0  0  0
  -28.2044   -0.0017   -5.0581 Br  0  0  0  0  0  0  0  0  0  0  0  0
  -29.7260   -2.1355   -3.9296 C   0  0  0  0  0  0  0  0  0  0  0  0
  -29.9676   -3.4697   -3.6141 C   0  0  0  0  0  0  0  0  0  0  0  0
  -31.1406   -3.8052   -3.0541 F   0  0  0  0  0  0  0  0  0  0  0  0
  -26.4719  -10.7434   -6.7933 O   0  0  0  0  0  0  0  0  0  0  0  0
  -27.2285  -11.8990   -7.1723 C   0  0  0  0  0  0  0  0  0  0  0  0
  -26.9387  -12.2792   -8.6262 C   0  0  0  0  0  0  0  0  0  0  0  0
  -27.9732  -11.7887   -9.5262 N   0  0  0  0  0  0  0  0  0  0  0  0
  -27.7066  -10.7710  -10.4198 C   0  0  0  0  0  0  0  0  0  0  0  0
  -26.5879  -10.2917  -10.5671 O   0  0  0  0  0  0  0  0  0  0  0  0
  -28.9332  -12.0648   -9.3618 H   0  0  0  0  0  0  0  0  0  0  0  0
  -28.9349  -10.2733  -11.1580 C   0  0  0  0  0  0  0  0  0  0  0  0
  -28.6966  -10.1798  -12.6564 C   0  0  0  0  0  0  0  0  0  0  0  0
 15 16  2  0  0  0
 16 11  1  0  0  0
 11 12  2  0  0  0
 11 13  1  0  0  0
 13  1  1  0  0  0
 13 14  1  0  0  0
  1  2  1  0  0  0
  1 10  2  0  0  0
  2  3  2  0  0  0
  3  4  1  0  0  0
  3  8  1  0  0  0
  4 17  1  0  0  0
  4  5  2  0  0  0
 17 19  1  0  0  0
 17 18  1  0  0  0
 19 20  1  0  0  0
 19 25  2  0  0  0
 20 21  2  0  0  0
 21 22  1  0  0  0
 22 23  1  0  0  0
 22 24  2  0  0  0
 24 25  1  0  0  0
 25 26  1  0  0  0
  5  6  1  0  0  0
  6  7  2  0  0  0
  7  8  1  0  0  0
  8  9  2  0  0  0
  9 10  1  0  0  0
 10 27  1  0  0  0
 27 28  1  0  0  0
 28 29  1  0  0  0
 29 30  1  0  0  0
 30 31  1  0  0  0
 30 33  1  0  0  0
 31 32  2  0  0  0
 31 34  1  0  0  0
 34 35  1  0  0  0
M  END
> <minimizedAffinity>
-7.87086

$$$$
