CHEMBL522855


 32 36  0  0  0  0  0  0  0  0999 V2000
  -28.8804   -6.9178   -5.2081 N   0  0  0  0  0  0  0  0  0  0  0  0
  -28.2218   -8.1468   -5.6378 C   0  0  0  0  0  0  0  0  0  0  0  0
  -28.6376   -8.6748   -7.0201 C   0  0  0  0  0  0  0  0  0  0  0  0
  -30.1369   -8.7403   -7.1962 C   0  0  0  0  0  0  0  0  0  0  0  0
  -30.9212   -7.8691   -6.4131 C   0  0  0  0  0  0  0  0  0  0  0  0
  -32.3221   -7.8915   -6.5443 C   0  0  0  0  0  0  0  0  0  0  0  0
  -32.9416   -8.7485   -7.4456 C   0  0  0  0  0  0  0  0  0  0  0  0
  -32.1725   -9.5879   -8.2464 C   0  0  0  0  0  0  0  0  0  0  0  0
  -30.7704   -9.5980   -8.1383 C   0  0  0  0  0  0  0  0  0  0  0  0
  -30.3205   -6.8666   -5.4449 C   0  0  0  0  0  0  0  0  0  0  0  0
  -29.9894  -10.4380   -9.1065 C   0  0  0  0  0  0  0  0  0  0  0  0
  -29.6674  -11.5835   -8.8071 O   0  0  0  0  0  0  0  0  0  0  0  0
  -29.6209   -9.8479  -10.3081 N   0  0  0  0  0  0  0  0  0  0  0  0
  -29.9754   -8.9322  -10.5489 H   0  0  0  0  0  0  0  0  0  0  0  0
  -28.7641  -10.5033  -11.2483 C   0  0  0  0  0  0  0  0  0  0  0  0
  -27.4873   -9.8521  -11.7264 C   0  0  0  0  0  0  0  0  0  0  0  0
  -28.6491  -10.0032  -12.6637 C   0  0  0  0  0  0  0  0  0  0  0  0
  -28.1504   -5.6702   -5.4683 C   0  0  0  0  0  0  0  0  0  0  0  0
  -28.5661   -0.4173   -6.2019 C   0  0  0  0  0  0  0  0  0  0  0  0
  -29.3080   -0.8026   -5.0710 C   0  0  0  0  0  0  0  0  0  0  0  0
  -29.4339   -2.1142   -4.6683 C   0  0  0  0  0  0  0  0  0  0  0  0
  -30.1371   -2.3360   -3.5449 N   0  0  0  0  0  0  0  0  0  0  0  0
  -30.2294   -3.5970   -3.0936 C   0  0  0  0  0  0  0  0  0  0  0  0
  -29.6176   -4.6708   -3.7058 C   0  0  0  0  0  0  0  0  0  0  0  0
  -28.8630   -4.4583   -4.8739 C   0  0  0  0  0  0  0  0  0  0  0  0
  -28.8103   -3.1394   -5.4120 C   0  0  0  0  0  0  0  0  0  0  0  0
  -28.1713   -2.7606   -6.6193 C   0  0  0  0  0  0  0  0  0  0  0  0
  -28.0461   -1.4151   -7.0266 C   0  0  0  0  0  0  0  0  0  0  0  0
  -29.5505    1.6715   -6.7324 C   0  0  0  0  0  0  0  0  0  0  0  0
  -28.3640    0.9076   -6.4888 O   0  0  0  0  0  0  0  0  0  0  0  0
  -27.3429   -1.3051   -8.1933 O   0  0  0  0  0  0  0  0  0  0  0  0
  -27.5546   -2.1998   -9.2730 C   0  0  0  0  0  0  0  0  0  0  0  0
 29 30  1  0  0  0
 30 19  1  0  0  0
 19 20  1  0  0  0
 19 28  2  0  0  0
 20 21  2  0  0  0
 21 22  1  0  0  0
 21 26  1  0  0  0
 22 23  2  0  0  0
 23 24  1  0  0  0
 24 25  2  0  0  0
 25 18  1  0  0  0
 25 26  1  0  0  0
 18  1  1  0  0  0
  1  2  1  0  0  0
  1 10  1  0  0  0
  2  3  1  0  0  0
  3  4  1  0  0  0
  4  5  1  0  0  0
  4  9  2  0  0  0
  5  6  2  0  0  0
  5 10  1  0  0  0
  6  7  1  0  0  0
  7  8  2  0  0  0
  8  9  1  0  0  0
  9 11  1  0  0  0
 11 12  2  0  0  0
 11 13  1  0  0  0
 13 15  1  0  0  0
 13 14  1  0  0  0
 15 16  1  0  0  0
 15 17  1  0  0  0
 16 17  1  0  0  0
 26 27  2  0  0  0
 27 28  1  0  0  0
 28 31  1  0  0  0
 31 32  1  0  0  0
M  END
> <minimizedAffinity>
-9.15031

$$$$
