CHEMBL1081312


 27 31  0  0  0  0  0  0  0  0999 V2000
  -29.1680   -6.6495   -3.1232 N   0  0  0  0  0  0  0  0  0  0  0  0
  -28.9297   -7.7279   -3.9510 C   0  0  0  0  0  0  0  0  0  0  0  0
  -28.6823   -8.8930   -3.3361 N   0  0  0  0  0  0  0  0  0  0  0  0
  -28.4396   -9.9789   -4.0936 C   0  0  0  0  0  0  0  0  0  0  0  0
  -28.4075  -10.0696   -5.4370 N   0  0  0  0  0  0  0  0  0  0  0  0
  -28.6580   -8.8864   -6.0110 C   0  0  0  0  0  0  0  0  0  0  0  0
  -28.9206   -7.6930   -5.3641 C   0  0  0  0  0  0  0  0  0  0  0  0
  -29.1090   -6.7352   -6.3933 C   0  0  0  0  0  0  0  0  0  0  0  0
  -29.0068   -7.3172   -7.6189 N   0  0  0  0  0  0  0  0  0  0  0  0
  -28.7037   -8.6043   -7.3541 N   0  0  0  0  0  0  0  0  0  0  0  0
  -29.3430   -6.8968   -2.1741 H   0  0  0  0  0  0  0  0  0  0  0  0
  -29.7483   -5.8991   -3.4759 H   0  0  0  0  0  0  0  0  0  0  0  0
  -29.3368   -5.3102   -6.2639 C   0  0  0  0  0  0  0  0  0  0  0  0
  -30.3310   -4.7951   -5.4324 C   0  0  0  0  0  0  0  0  0  0  0  0
  -30.6020   -3.4998   -5.1635 N   0  0  0  0  0  0  0  0  0  0  0  0
  -29.6961   -2.6767   -5.7440 C   0  0  0  0  0  0  0  0  0  0  0  0
  -29.6603   -1.3277   -5.5500 N   0  0  0  0  0  0  0  0  0  0  0  0
  -28.5831   -0.8086   -6.2314 C   0  0  0  0  0  0  0  0  0  0  0  0
  -27.9667   -1.8375   -6.9089 C   0  0  0  0  0  0  0  0  0  0  0  0
  -28.6625   -3.0325   -6.5832 C   0  0  0  0  0  0  0  0  0  0  0  0
  -28.4882   -4.3857   -6.8980 C   0  0  0  0  0  0  0  0  0  0  0  0
  -30.3057   -0.8237   -4.9761 H   0  0  0  0  0  0  0  0  0  0  0  0
  -28.4562   -9.5375   -8.4423 C   0  0  0  0  0  0  0  0  0  0  0  0
  -27.2312   -9.1942   -9.2917 C   0  0  0  0  0  0  0  0  0  0  0  0
  -27.4571   -9.8950  -10.6307 C   0  0  0  0  0  0  0  0  0  0  0  0
  -28.9322  -10.2858  -10.6811 C   0  0  0  0  0  0  0  0  0  0  0  0
  -29.5867   -9.6380   -9.4663 C   0  0  0  0  0  0  0  0  0  0  0  0
  1  2  1  0  0  0
  1 11  1  0  0  0
  1 12  1  0  0  0
  2  3  1  0  0  0
  2  7  2  0  0  0
  3  4  2  0  0  0
  4  5  1  0  0  0
  5  6  2  0  0  0
  6  7  1  0  0  0
  6 10  1  0  0  0
  7  8  1  0  0  0
  8 13  1  0  0  0
  8  9  2  0  0  0
 13 14  1  0  0  0
 13 21  2  0  0  0
 14 15  2  0  0  0
 15 16  1  0  0  0
 16 17  1  0  0  0
 16 20  2  0  0  0
 17 18  1  0  0  0
 17 22  1  0  0  0
 18 19  2  0  0  0
 19 20  1  0  0  0
 20 21  1  0  0  0
  9 10  1  0  0  0
 10 23  1  0  0  0
 23 24  1  0  0  0
 23 27  1  0  0  0
 24 25  1  0  0  0
 25 26  1  0  0  0
 26 27  1  0  0  0
M  END
> <minimizedAffinity>
-8.33568

$$$$
