CHEMBL4165429


 43 48  0  0  0  0  0  0  0  0999 V2000
  -28.4622  -10.0187  -11.9340 C   0  0  0  0  0  0  0  0  0  0  0  0
  -29.7345  -10.1881  -11.3409 C   0  0  0  0  0  0  0  0  0  0  0  0
  -29.9309   -9.9850   -9.9609 C   0  0  0  0  0  0  0  0  0  0  0  0
  -28.8459   -9.6277   -9.1776 C   0  0  0  0  0  0  0  0  0  0  0  0
  -27.5982   -9.4504   -9.7910 C   0  0  0  0  0  0  0  0  0  0  0  0
  -27.3778   -9.6239  -11.1434 C   0  0  0  0  0  0  0  0  0  0  0  0
  -26.6220   -9.1420   -8.8547 N   0  0  0  0  0  0  0  0  0  0  0  0
  -27.1360   -9.1575   -7.5723 C   0  0  0  0  0  0  0  0  0  0  0  0
  -26.4766   -9.1812   -6.5504 O   0  0  0  0  0  0  0  0  0  0  0  0
  -28.6312   -9.3384   -7.7419 C   0  0  0  0  0  0  0  0  0  0  0  0
  -29.4783   -9.2326   -6.6923 C   0  0  0  0  0  0  0  0  0  0  0  0
  -25.6317   -9.0772   -9.0345 H   0  0  0  0  0  0  0  0  0  0  0  0
  -30.8573   -9.7521   -6.7866 C   0  0  0  0  0  0  0  0  0  0  0  0
  -31.0907  -11.1111   -6.5211 C   0  0  0  0  0  0  0  0  0  0  0  0
  -32.3873  -11.6242   -6.5480 C   0  0  0  0  0  0  0  0  0  0  0  0
  -33.4589  -10.7837   -6.8444 C   0  0  0  0  0  0  0  0  0  0  0  0
  -33.2359   -9.4311   -7.1052 C   0  0  0  0  0  0  0  0  0  0  0  0
  -31.9398   -8.9127   -7.0697 C   0  0  0  0  0  0  0  0  0  0  0  0
  -28.1922  -10.2829  -13.3729 C   0  0  0  0  0  0  0  0  0  0  0  0
  -28.8259  -11.1013  -14.0284 O   0  0  0  0  0  0  0  0  0  0  0  0
  -27.1793   -9.3943  -15.2745 C   0  0  0  0  0  0  0  0  0  0  0  0
  -27.2130   -9.4772  -13.8486 O   0  0  0  0  0  0  0  0  0  0  0  0
  -29.1988   -8.7369   -5.4141 N   0  0  0  0  0  0  0  0  0  0  0  0
  -28.4834   -9.3109   -4.9693 H   0  0  0  0  0  0  0  0  0  0  0  0
  -28.9134   -7.3582   -5.1806 C   0  0  0  0  0  0  0  0  0  0  0  0
  -28.8409   -6.8323   -3.8839 C   0  0  0  0  0  0  0  0  0  0  0  0
  -28.6125   -5.4683   -3.6475 C   0  0  0  0  0  0  0  0  0  0  0  0
  -28.4571   -4.6379   -4.7614 C   0  0  0  0  0  0  0  0  0  0  0  0
  -28.2914   -3.2736   -4.8481 N   0  0  0  0  0  0  0  0  0  0  0  0
  -28.1052   -2.8831   -6.1560 C   0  0  0  0  0  0  0  0  0  0  0  0
  -28.2843   -4.0201   -6.9276 C   0  0  0  0  0  0  0  0  0  0  0  0
  -28.4704   -5.1296   -6.0633 C   0  0  0  0  0  0  0  0  0  0  0  0
  -28.6691   -6.5088   -6.2734 C   0  0  0  0  0  0  0  0  0  0  0  0
  -28.2707   -2.6354   -4.0637 H   0  0  0  0  0  0  0  0  0  0  0  0
  -27.8537   -1.5082   -6.5373 C   0  0  0  0  0  0  0  0  0  0  0  0
  -26.8999   -1.2148   -7.2548 O   0  0  0  0  0  0  0  0  0  0  0  0
  -28.7506   -0.5390   -6.0670 N   0  0  0  0  0  0  0  0  0  0  0  0
  -28.4371    0.8566   -6.3838 C   0  0  0  0  0  0  0  0  0  0  0  0
  -29.2786    1.8619   -5.5692 C   0  0  0  0  0  0  0  0  0  0  0  0
  -30.7329    1.5976   -5.5471 N   0  0  0  0  0  0  0  0  0  0  0  0
  -31.3636    1.9044   -6.8296 C   0  0  0  0  0  0  0  0  0  0  0  0
  -30.9606    0.1952   -5.1521 C   0  0  0  0  0  0  0  0  0  0  0  0
  -30.1866   -0.8357   -5.9890 C   0  0  0  0  0  0  0  0  0  0  0  0
 21 22  1  0  0  0
 22 19  1  0  0  0
 19 20  2  0  0  0
 19  1  1  0  0  0
  1  2  1  0  0  0
  1  6  2  0  0  0
  2  3  2  0  0  0
  3  4  1  0  0  0
  4  5  2  0  0  0
  4 10  1  0  0  0
  5  6  1  0  0  0
  5  7  1  0  0  0
  7  8  1  0  0  0
  7 12  1  0  0  0
  8  9  2  0  0  0
  8 10  1  0  0  0
 10 11  2  0  0  0
 11 23  1  0  0  0
 11 13  1  0  0  0
 23 25  1  0  0  0
 23 24  1  0  0  0
 25 26  1  0  0  0
 25 33  2  0  0  0
 26 27  2  0  0  0
 27 28  1  0  0  0
 28 29  1  0  0  0
 28 32  2  0  0  0
 29 30  1  0  0  0
 29 34  1  0  0  0
 30 35  1  0  0  0
 30 31  2  0  0  0
 35 36  2  0  0  0
 35 37  1  0  0  0
 37 38  1  0  0  0
 37 43  1  0  0  0
 38 39  1  0  0  0
 39 40  1  0  0  0
 40 41  1  0  0  0
 40 42  1  0  0  0
 42 43  1  0  0  0
 31 32  1  0  0  0
 32 33  1  0  0  0
 13 14  1  0  0  0
 13 18  2  0  0  0
 14 15  2  0  0  0
 15 16  1  0  0  0
 16 17  2  0  0  0
 17 18  1  0  0  0
M  END
> <minimizedAffinity>
-4.48434

$$$$
