CHEMBL4247248


 36 39  0  0  0  0  0  0  0  0999 V2000
  -27.5521   -1.9862   -9.5010 C   0  0  0  0  0  0  0  0  0  0  0  0
  -26.1507   -1.9244   -9.4555 C   0  0  0  0  0  0  0  0  0  0  0  0
  -25.3984   -1.5073  -10.5506 C   0  0  0  0  0  0  0  0  0  0  0  0
  -26.0135   -1.1916  -11.7629 C   0  0  0  0  0  0  0  0  0  0  0  0
  -27.4069   -1.1924  -11.8171 C   0  0  0  0  0  0  0  0  0  0  0  0
  -28.1644   -1.5615  -10.6889 C   0  0  0  0  0  0  0  0  0  0  0  0
  -30.3000   -5.5333   -7.2133 C   0  0  0  0  0  0  0  0  0  0  0  0
  -29.6610   -4.1717   -7.1464 C   0  0  0  0  0  0  0  0  0  0  0  0
  -28.8768   -3.7283   -8.2407 C   0  0  0  0  0  0  0  0  0  0  0  0
  -28.2836   -2.4430   -8.3155 C   0  0  0  0  0  0  0  0  0  0  0  0
  -28.5867   -1.7296   -7.1425 C   0  0  0  0  0  0  0  0  0  0  0  0
  -28.2879   -0.4352   -6.7821 C   0  0  0  0  0  0  0  0  0  0  0  0
  -27.6655    0.6130   -7.3583 N   0  0  0  0  0  0  0  0  0  0  0  0
  -28.7813   -0.1995   -5.5315 O   0  0  0  0  0  0  0  0  0  0  0  0
  -29.4625   -1.3054   -5.0631 N   0  0  0  0  0  0  0  0  0  0  0  0
  -29.3609   -2.2182   -6.0314 C   0  0  0  0  0  0  0  0  0  0  0  0
  -29.9178   -3.4584   -6.0187 N   0  0  0  0  0  0  0  0  0  0  0  0
  -27.6776    0.6889   -8.3718 H   0  0  0  0  0  0  0  0  0  0  0  0
  -27.7683    1.5147   -6.9006 H   0  0  0  0  0  0  0  0  0  0  0  0
  -25.2700   -0.8636  -12.9177 N   0  0  0  0  0  0  0  0  0  0  0  0
  -24.1163   -0.1025  -12.8966 C   0  0  0  0  0  0  0  0  0  0  0  0
  -23.5321    0.2510  -11.8735 O   0  0  0  0  0  0  0  0  0  0  0  0
  -23.7023    0.2626  -14.1687 N   0  0  0  0  0  0  0  0  0  0  0  0
  -25.4199   -1.4255  -13.7420 H   0  0  0  0  0  0  0  0  0  0  0  0
  -24.4644    0.4160  -14.8117 H   0  0  0  0  0  0  0  0  0  0  0  0
  -22.5754    1.1069  -14.3111 C   0  0  0  0  0  0  0  0  0  0  0  0
  -22.6977    2.4588  -14.0109 C   0  0  0  0  0  0  0  0  0  0  0  0
  -21.5520    3.2536  -13.9519 C   0  0  0  0  0  0  0  0  0  0  0  0
  -20.2862    2.7204  -14.2449 C   0  0  0  0  0  0  0  0  0  0  0  0
  -18.9437    3.7868  -14.0628 Cl  0  0  0  0  0  0  0  0  0  0  0  0
  -20.1548    1.3868  -14.6410 C   0  0  0  0  0  0  0  0  0  0  0  0
  -21.3218    0.5921  -14.6653 C   0  0  0  0  0  0  0  0  0  0  0  0
  -18.8657    0.7191  -15.0354 C   0  0  0  0  0  0  0  0  0  0  0  0
  -18.9603   -0.5529  -15.5000 F   0  0  0  0  0  0  0  0  0  0  0  0
  -18.2004    1.4106  -16.0065 F   0  0  0  0  0  0  0  0  0  0  0  0
  -17.9966    0.6518  -13.9838 F   0  0  0  0  0  0  0  0  0  0  0  0
  7  8  1  0  0  0
  8  9  1  0  0  0
  8 17  2  0  0  0
  9 10  2  0  0  0
 10  1  1  0  0  0
 10 11  1  0  0  0
  1  2  1  0  0  0
  1  6  2  0  0  0
  2  3  2  0  0  0
  3  4  1  0  0  0
  4 20  1  0  0  0
  4  5  2  0  0  0
 20 21  1  0  0  0
 20 24  1  0  0  0
 21 22  2  0  0  0
 21 23  1  0  0  0
 23 26  1  0  0  0
 23 25  1  0  0  0
 26 27  1  0  0  0
 26 32  2  0  0  0
 27 28  2  0  0  0
 28 29  1  0  0  0
 29 30  1  0  0  0
 29 31  2  0  0  0
 31 33  1  0  0  0
 31 32  1  0  0  0
 33 34  1  0  0  0
 33 35  1  0  0  0
 33 36  1  0  0  0
  5  6  1  0  0  0
 11 12  2  0  0  0
 11 16  1  0  0  0
 12 13  1  0  0  0
 12 14  1  0  0  0
 13 18  1  0  0  0
 13 19  1  0  0  0
 14 15  1  0  0  0
 15 16  2  0  0  0
 16 17  1  0  0  0
M  END
> <minimizedAffinity>
-9.28744

$$$$
