CHEMBL3914057


 36 40  0  0  0  0  0  0  0  0999 V2000
  -25.5388    9.4299  -17.1792 C   0  0  0  0  0  0  0  0  0  0  0  0
  -24.9320   10.5787  -16.8224 C   0  0  0  0  0  0  0  0  0  0  0  0
  -23.8646   11.0571  -17.7336 C   0  0  0  0  0  0  0  0  0  0  0  0
  -24.0473   12.1239  -18.6313 C   0  0  0  0  0  0  0  0  0  0  0  0
  -22.9837   12.5948  -19.4354 C   0  0  0  0  0  0  0  0  0  0  0  0
  -21.6926   12.0774  -19.1931 C   0  0  0  0  0  0  0  0  0  0  0  0
  -20.3376   12.1945  -19.6731 C   0  0  0  0  0  0  0  0  0  0  0  0
  -19.5611   12.1510  -18.5594 N   0  0  0  0  0  0  0  0  0  0  0  0
  -20.2241   11.2316  -17.8195 N   0  0  0  0  0  0  0  0  0  0  0  0
  -21.5509   11.1709  -18.1486 C   0  0  0  0  0  0  0  0  0  0  0  0
  -22.5991   10.4988  -17.5385 C   0  0  0  0  0  0  0  0  0  0  0  0
  -19.7530   10.8011  -17.0449 H   0  0  0  0  0  0  0  0  0  0  0  0
  -19.7197   11.4825  -20.7860 C   0  0  0  0  0  0  0  0  0  0  0  0
  -19.3511   10.1908  -20.7091 C   0  0  0  0  0  0  0  0  0  0  0  0
  -17.9981    9.7293  -21.1123 C   0  0  0  0  0  0  0  0  0  0  0  0
  -16.8426   10.1991  -20.4632 C   0  0  0  0  0  0  0  0  0  0  0  0
  -15.6043    9.5766  -20.6356 C   0  0  0  0  0  0  0  0  0  0  0  0
  -15.5005    8.4623  -21.4619 C   0  0  0  0  0  0  0  0  0  0  0  0
  -16.6321    7.9909  -22.1290 C   0  0  0  0  0  0  0  0  0  0  0  0
  -17.8716    8.6123  -21.9551 C   0  0  0  0  0  0  0  0  0  0  0  0
  -25.2301   11.2439  -15.5105 C   0  0  0  0  0  0  0  0  0  0  0  0
  -24.2468   11.9976  -14.8547 C   0  0  0  0  0  0  0  0  0  0  0  0
  -24.5338   12.6577  -13.6653 C   0  0  0  0  0  0  0  0  0  0  0  0
  -25.8244   12.6224  -13.1423 C   0  0  0  0  0  0  0  0  0  0  0  0
  -26.8554   11.9525  -13.8029 C   0  0  0  0  0  0  0  0  0  0  0  0
  -26.5386   11.2266  -14.9662 C   0  0  0  0  0  0  0  0  0  0  0  0
  -28.2018   12.0036  -13.3488 N   0  0  0  0  0  0  0  0  0  0  0  0
  -29.1751   11.0376  -13.6453 C   0  0  0  0  0  0  0  0  0  0  0  0
  -28.9469   10.0325  -14.3012 O   0  0  0  0  0  0  0  0  0  0  0  0
  -28.4574   12.6880  -12.6487 H   0  0  0  0  0  0  0  0  0  0  0  0
  -30.5070   11.2882  -13.0669 C   0  0  0  0  0  0  0  0  0  0  0  0
  -30.7549   11.5526  -11.8026 N   0  0  0  0  0  0  0  0  0  0  0  0
  -32.1263   11.7538  -11.6556 C   0  0  0  0  0  0  0  0  0  0  0  0
  -32.8869   11.6270  -12.8010 C   0  0  0  0  0  0  0  0  0  0  0  0
  -34.3480   11.7753  -13.0224 C   0  0  0  0  0  0  0  0  0  0  0  0
  -31.8675   11.2347  -14.1129 S   0  0  0  0  0  0  0  0  0  0  0  0
  1  2  2  0  0  0
  2 21  1  0  0  0
  2  3  1  0  0  0
 21 22  1  0  0  0
 21 26  2  0  0  0
 22 23  2  0  0  0
 23 24  1  0  0  0
 24 25  2  0  0  0
 25 27  1  0  0  0
 25 26  1  0  0  0
 27 28  1  0  0  0
 27 30  1  0  0  0
 28 29  2  0  0  0
 28 31  1  0  0  0
 31 32  2  0  0  0
 31 36  1  0  0  0
 32 33  1  0  0  0
 33 34  2  0  0  0
 34 35  1  0  0  0
 34 36  1  0  0  0
  3  4  1  0  0  0
  3 11  2  0  0  0
  4  5  2  0  0  0
  5  6  1  0  0  0
  6  7  1  0  0  0
  6 10  2  0  0  0
  7 13  1  0  0  0
  7  8  2  0  0  0
 13 14  2  0  0  0
 14 15  1  0  0  0
 15 16  1  0  0  0
 15 20  2  0  0  0
 16 17  2  0  0  0
 17 18  1  0  0  0
 18 19  2  0  0  0
 19 20  1  0  0  0
  8  9  1  0  0  0
  9 10  1  0  0  0
  9 12  1  0  0  0
 10 11  1  0  0  0
M  END
> <minimizedAffinity>
-6.99334

$$$$
