CHEMBL179450


 37 40  0  0  0  0  0  0  0  0999 V2000
  -29.7481   -7.1297   -5.8062 C   0  0  0  0  0  0  0  0  0  0  0  0
  -28.6298   -7.1360   -4.9758 C   0  0  0  0  0  0  0  0  0  0  0  0
  -27.7447   -8.2193   -5.0102 C   0  0  0  0  0  0  0  0  0  0  0  0
  -28.0098   -9.3545   -5.7856 C   0  0  0  0  0  0  0  0  0  0  0  0
  -29.2216   -9.3894   -6.4907 C   0  0  0  0  0  0  0  0  0  0  0  0
  -30.0842   -8.2870   -6.5040 C   0  0  0  0  0  0  0  0  0  0  0  0
  -27.1837  -10.4689   -5.8200 N   0  0  0  0  0  0  0  0  0  0  0  0
  -27.5105  -11.2675   -5.2835 H   0  0  0  0  0  0  0  0  0  0  0  0
  -26.0929  -10.6082   -6.7364 C   0  0  0  0  0  0  0  0  0  0  0  0
  -24.9875  -11.0881   -5.9634 N   0  0  0  0  0  0  0  0  0  0  0  0
  -24.6212  -12.0095   -6.1694 H   0  0  0  0  0  0  0  0  0  0  0  0
  -24.8026  -10.6274   -4.6477 C   0  0  0  0  0  0  0  0  0  0  0  0
  -24.6478  -10.2034   -3.5794 N   0  0  0  0  0  0  0  0  0  0  0  0
  -26.4616  -11.5244   -7.7945 N   0  0  0  0  0  0  0  0  0  0  0  0
  -26.2808  -12.5078   -7.6359 H   0  0  0  0  0  0  0  0  0  0  0  0
  -27.2073  -11.1766   -8.9664 C   0  0  0  0  0  0  0  0  0  0  0  0
  -28.4913  -11.6724   -9.2266 C   0  0  0  0  0  0  0  0  0  0  0  0
  -29.1818  -11.2786  -10.3763 C   0  0  0  0  0  0  0  0  0  0  0  0
  -28.5922  -10.3906  -11.2632 C   0  0  0  0  0  0  0  0  0  0  0  0
  -29.2580  -10.0135  -12.3598 F   0  0  0  0  0  0  0  0  0  0  0  0
  -27.3180   -9.8912  -11.0233 C   0  0  0  0  0  0  0  0  0  0  0  0
  -26.6210  -10.2877   -9.8763 C   0  0  0  0  0  0  0  0  0  0  0  0
  -30.5380   -6.0313   -6.0431 O   0  0  0  0  0  0  0  0  0  0  0  0
  -28.2928   -1.3550   -5.2533 C   0  0  0  0  0  0  0  0  0  0  0  0
  -29.2154   -1.6603   -4.2374 C   0  0  0  0  0  0  0  0  0  0  0  0
  -29.9686   -2.8257   -4.2217 C   0  0  0  0  0  0  0  0  0  0  0  0
  -30.7306   -3.0599   -3.1423 N   0  0  0  0  0  0  0  0  0  0  0  0
  -31.4179   -4.2159   -3.0762 C   0  0  0  0  0  0  0  0  0  0  0  0
  -31.3553   -5.1919   -4.0454 C   0  0  0  0  0  0  0  0  0  0  0  0
  -30.5568   -4.9593   -5.1644 C   0  0  0  0  0  0  0  0  0  0  0  0
  -29.8782   -3.7139   -5.3052 C   0  0  0  0  0  0  0  0  0  0  0  0
  -29.0913   -3.2989   -6.4094 C   0  0  0  0  0  0  0  0  0  0  0  0
  -28.2243   -2.2017   -6.3611 C   0  0  0  0  0  0  0  0  0  0  0  0
  -28.1747    0.9894   -4.9301 C   0  0  0  0  0  0  0  0  0  0  0  0
  -27.5033   -0.2394   -5.2095 O   0  0  0  0  0  0  0  0  0  0  0  0
  -27.3807   -2.1852   -7.4346 O   0  0  0  0  0  0  0  0  0  0  0  0
  -27.8014   -2.6521   -8.7059 C   0  0  0  0  0  0  0  0  0  0  0  0
 34 35  1  0  0  0
 35 24  1  0  0  0
 24 25  1  0  0  0
 24 33  2  0  0  0
 25 26  2  0  0  0
 26 27  1  0  0  0
 26 31  1  0  0  0
 27 28  2  0  0  0
 28 29  1  0  0  0
 29 30  2  0  0  0
 30 23  1  0  0  0
 30 31  1  0  0  0
 23  1  1  0  0  0
  1  2  1  0  0  0
  1  6  2  0  0  0
  2  3  2  0  0  0
  3  4  1  0  0  0
  4  7  1  0  0  0
  4  5  2  0  0  0
  7  9  1  0  0  0
  7  8  1  0  0  0
  9 10  1  0  0  0
  9 14  1  0  0  0
 10 12  1  0  0  0
 10 11  1  0  0  0
 12 13  3  0  0  0
 14 16  1  0  0  0
 14 15  1  0  0  0
 16 17  1  0  0  0
 16 22  2  0  0  0
 17 18  2  0  0  0
 18 19  1  0  0  0
 19 20  1  0  0  0
 19 21  2  0  0  0
 21 22  1  0  0  0
  5  6  1  0  0  0
 31 32  2  0  0  0
 32 33  1  0  0  0
 33 36  1  0  0  0
 36 37  1  0  0  0
M  END
> <minimizedAffinity>
-8.03123

$$$$
