CHEMBL2113166


 28 30  0  0  0  0  0  0  0  0999 V2000
  -28.8483   -1.6286   -5.0121 C   0  0  0  0  0  0  0  0  0  0  0  0
  -29.8029   -2.2404   -4.1635 C   0  0  0  0  0  0  0  0  0  0  0  0
  -30.2399   -3.5529   -4.3126 C   0  0  0  0  0  0  0  0  0  0  0  0
  -31.1959   -4.0384   -3.5082 N   0  0  0  0  0  0  0  0  0  0  0  0
  -31.5965   -5.2983   -3.7293 C   0  0  0  0  0  0  0  0  0  0  0  0
  -31.1094   -6.1265   -4.6576 N   0  0  0  0  0  0  0  0  0  0  0  0
  -30.1323   -5.6363   -5.4468 C   0  0  0  0  0  0  0  0  0  0  0  0
  -29.6719   -4.3149   -5.3300 C   0  0  0  0  0  0  0  0  0  0  0  0
  -28.7100   -3.7247   -6.1813 C   0  0  0  0  0  0  0  0  0  0  0  0
  -28.2869   -2.3951   -6.0398 C   0  0  0  0  0  0  0  0  0  0  0  0
  -29.5588   -6.4873   -6.4346 N   0  0  0  0  0  0  0  0  0  0  0  0
  -28.5440   -6.5258   -6.2970 H   0  0  0  0  0  0  0  0  0  0  0  0
  -30.0670   -7.7506   -6.6938 C   0  0  0  0  0  0  0  0  0  0  0  0
  -31.1735   -8.0049   -7.4136 C   0  0  0  0  0  0  0  0  0  0  0  0
  -31.7170   -9.3562   -7.5812 C   0  0  0  0  0  0  0  0  0  0  0  0
  -32.6616   -9.5515   -8.3376 O   0  0  0  0  0  0  0  0  0  0  0  0
  -31.0746  -10.4331   -6.7840 C   0  0  0  0  0  0  0  0  0  0  0  0
  -31.8717  -11.9598   -6.7122 Cl  0  0  0  0  0  0  0  0  0  0  0  0
  -29.9344  -10.2291   -6.1274 C   0  0  0  0  0  0  0  0  0  0  0  0
  -29.2918   -8.9022   -6.1347 C   0  0  0  0  0  0  0  0  0  0  0  0
  -28.1727   -8.7395   -5.6594 O   0  0  0  0  0  0  0  0  0  0  0  0
  -27.4765   -2.0541   -7.0827 O   0  0  0  0  0  0  0  0  0  0  0  0
  -27.8996   -2.1964   -8.4268 C   0  0  0  0  0  0  0  0  0  0  0  0
  -28.6823   -0.3072   -4.6765 O   0  0  0  0  0  0  0  0  0  0  0  0
  -28.9627    0.6583   -5.6696 C   0  0  0  0  0  0  0  0  0  0  0  0
  -30.4204    1.0906   -5.7121 C   0  0  0  0  0  0  0  0  0  0  0  0
  -31.8542    2.2599   -7.2052 C   0  0  0  0  0  0  0  0  0  0  0  0
  -30.5195    1.9642   -6.8412 O   0  0  0  0  0  0  0  0  0  0  0  0
 27 28  1  0  0  0
 28 26  1  0  0  0
 26 25  1  0  0  0
 25 24  1  0  0  0
 24  1  1  0  0  0
  1  2  1  0  0  0
  1 10  2  0  0  0
  2  3  2  0  0  0
  3  4  1  0  0  0
  3  8  1  0  0  0
  4  5  2  0  0  0
  5  6  1  0  0  0
  6  7  2  0  0  0
  7 11  1  0  0  0
  7  8  1  0  0  0
 11 13  1  0  0  0
 11 12  1  0  0  0
 13 14  2  0  0  0
 13 20  1  0  0  0
 14 15  1  0  0  0
 15 16  2  0  0  0
 15 17  1  0  0  0
 17 18  1  0  0  0
 17 19  2  0  0  0
 19 20  1  0  0  0
 20 21  2  0  0  0
  8  9  2  0  0  0
  9 10  1  0  0  0
 10 22  1  0  0  0
 22 23  1  0  0  0
M  END
> <minimizedAffinity>
-7.95243

$$$$
