CHEMBL3925610


 41 46  0  0  0  0  0  0  0  0999 V2000
  -15.1041    2.0553  -15.8602 N   0  0  0  0  0  0  0  0  0  0  0  0
  -16.5504    2.0899  -15.8930 C   0  0  0  0  0  0  0  0  0  0  0  0
  -17.0959    3.2998  -16.3106 C   0  0  0  0  0  0  0  0  0  0  0  0
  -18.3423    3.6839  -15.8624 C   0  0  0  0  0  0  0  0  0  0  0  0
  -19.1460    2.8437  -15.1181 C   0  0  0  0  0  0  0  0  0  0  0  0
  -20.2021    3.4620  -14.5833 N   0  0  0  0  0  0  0  0  0  0  0  0
  -21.0903    2.6837  -13.9579 C   0  0  0  0  0  0  0  0  0  0  0  0
  -20.9921    1.3121  -13.9636 C   0  0  0  0  0  0  0  0  0  0  0  0
  -19.8422    0.6805  -14.4130 N   0  0  0  0  0  0  0  0  0  0  0  0
  -18.8272    1.4891  -14.9410 C   0  0  0  0  0  0  0  0  0  0  0  0
  -17.4594    1.1396  -15.3216 C   0  0  0  0  0  0  0  0  0  0  0  0
  -22.2355    0.5899  -13.6696 C   0  0  0  0  0  0  0  0  0  0  0  0
  -22.6737    0.0251  -12.4384 C   0  0  0  0  0  0  0  0  0  0  0  0
  -23.7157   -0.8060  -12.5774 N   0  0  0  0  0  0  0  0  0  0  0  0
  -23.9516   -0.7912  -13.8993 N   0  0  0  0  0  0  0  0  0  0  0  0
  -25.1726   -1.3568  -14.4280 C   0  0  0  0  0  0  0  0  0  0  0  0
  -22.9893   -0.1111  -14.6023 C   0  0  0  0  0  0  0  0  0  0  0  0
  -13.4233    5.2845  -16.8835 C   0  0  0  0  0  0  0  0  0  0  0  0
  -12.5348    5.4703  -15.8265 C   0  0  0  0  0  0  0  0  0  0  0  0
  -12.4523    4.5127  -14.8138 C   0  0  0  0  0  0  0  0  0  0  0  0
  -13.2762    3.3797  -14.8524 C   0  0  0  0  0  0  0  0  0  0  0  0
  -14.1965    3.1469  -15.8820 C   0  0  0  0  0  0  0  0  0  0  0  0
  -14.2390    4.1242  -16.8996 C   0  0  0  0  0  0  0  0  0  0  0  0
  -13.8822    5.7042  -19.2373 C   0  0  0  0  0  0  0  0  0  0  0  0
  -13.6541    6.1665  -17.9066 O   0  0  0  0  0  0  0  0  0  0  0  0
  -11.6169    4.5455  -13.7284 O   0  0  0  0  0  0  0  0  0  0  0  0
  -11.5084    3.3786  -12.9257 C   0  0  0  0  0  0  0  0  0  0  0  0
  -14.6228    0.7395  -16.4605 C   0  0  0  0  0  0  0  0  0  0  0  0
  -13.7599   -0.2095  -15.5649 C   0  0  0  0  0  0  0  0  0  0  0  0
  -14.1422   -0.2309  -14.0703 C   0  0  0  0  0  0  0  0  0  0  0  0
  -13.2611   -1.0815  -13.2174 N   0  0  0  0  0  0  0  0  0  0  0  0
  -11.8532   -0.6774  -13.4314 C   0  0  0  0  0  0  0  0  0  0  0  0
  -11.4572   -0.5117  -14.9094 C   0  0  0  0  0  0  0  0  0  0  0  0
  -12.3873    0.2801  -15.6602 O   0  0  0  0  0  0  0  0  0  0  0  0
  -13.4035   -2.5291  -13.4524 C   0  0  0  0  0  0  0  0  0  0  0  0
  -14.6284   -3.1841  -12.8515 C   0  0  0  0  0  0  0  0  0  0  0  0
  -15.2614   -4.2239  -13.5514 C   0  0  0  0  0  0  0  0  0  0  0  0
  -16.3052   -4.9440  -12.9689 C   0  0  0  0  0  0  0  0  0  0  0  0
  -16.7278   -4.6359  -11.6783 C   0  0  0  0  0  0  0  0  0  0  0  0
  -16.1164   -3.5998  -10.9750 C   0  0  0  0  0  0  0  0  0  0  0  0
  -15.0691   -2.8812  -11.5553 C   0  0  0  0  0  0  0  0  0  0  0  0
 24 25  1  0  0  0
 25 18  1  0  0  0
 18 19  1  0  0  0
 18 23  2  0  0  0
 19 20  2  0  0  0
 20 26  1  0  0  0
 20 21  1  0  0  0
 26 27  1  0  0  0
 21 22  2  0  0  0
 22  1  1  0  0  0
 22 23  1  0  0  0
  1 28  1  0  0  0
  1  2  1  0  0  0
 28 29  1  0  0  0
 29 30  1  0  0  0
 29 34  1  0  0  0
 30 31  1  0  0  0
 31 35  1  0  0  0
 31 32  1  0  0  0
 35 36  1  0  0  0
 36 37  1  0  0  0
 36 41  2  0  0  0
 37 38  2  0  0  0
 38 39  1  0  0  0
 39 40  2  0  0  0
 40 41  1  0  0  0
 32 33  1  0  0  0
 33 34  1  0  0  0
  2  3  1  0  0  0
  2 11  2  0  0  0
  3  4  2  0  0  0
  4  5  1  0  0  0
  5  6  1  0  0  0
  5 10  2  0  0  0
  6  7  2  0  0  0
  7  8  1  0  0  0
  8 12  1  0  0  0
  8  9  2  0  0  0
 12 13  1  0  0  0
 12 17  2  0  0  0
 13 14  2  0  0  0
 14 15  1  0  0  0
 15 16  1  0  0  0
 15 17  1  0  0  0
  9 10  1  0  0  0
 10 11  1  0  0  0
M  END
> <minimizedAffinity>
-9.18323

$$$$
