CHEMBL3944909


 48 51  0  0  0  0  0  0  0  0999 V2000
  -14.5385    2.3188  -16.9948 N   0  0  0  0  0  0  0  0  0  0  0  0
  -14.6378    3.6984  -17.1158 C   0  0  0  0  0  0  0  0  0  0  0  0
  -15.2880    4.4024  -16.3467 O   0  0  0  0  0  0  0  0  0  0  0  0
  -13.9698    4.1967  -18.2314 N   0  0  0  0  0  0  0  0  0  0  0  0
  -14.2700    1.8025  -17.8182 H   0  0  0  0  0  0  0  0  0  0  0  0
  -13.9622    3.5917  -19.0392 H   0  0  0  0  0  0  0  0  0  0  0  0
  -13.9741    5.5937  -18.4799 C   0  0  0  0  0  0  0  0  0  0  0  0
  -14.8866    6.1469  -19.3830 C   0  0  0  0  0  0  0  0  0  0  0  0
  -14.8270    7.5005  -19.7270 C   0  0  0  0  0  0  0  0  0  0  0  0
  -13.8884    8.3403  -19.1239 C   0  0  0  0  0  0  0  0  0  0  0  0
  -12.9850    7.7811  -18.2150 C   0  0  0  0  0  0  0  0  0  0  0  0
  -12.0209    8.5408  -17.6740 F   0  0  0  0  0  0  0  0  0  0  0  0
  -13.0340    6.4247  -17.8659 C   0  0  0  0  0  0  0  0  0  0  0  0
  -13.7623    9.6854  -19.4209 O   0  0  0  0  0  0  0  0  0  0  0  0
  -14.5592   10.2453  -20.4037 C   0  0  0  0  0  0  0  0  0  0  0  0
  -14.1644   10.3497  -21.7342 C   0  0  0  0  0  0  0  0  0  0  0  0
  -15.0134   10.9849  -22.6098 C   0  0  0  0  0  0  0  0  0  0  0  0
  -16.2243   11.4418  -22.2590 N   0  0  0  0  0  0  0  0  0  0  0  0
  -16.6483   11.2762  -20.9978 C   0  0  0  0  0  0  0  0  0  0  0  0
  -15.8400   10.6807  -20.0328 C   0  0  0  0  0  0  0  0  0  0  0  0
  -17.9391   11.7171  -20.6427 N   0  0  0  0  0  0  0  0  0  0  0  0
  -19.0722   10.9363  -20.7908 C   0  0  0  0  0  0  0  0  0  0  0  0
  -19.1368    9.7921  -21.2409 O   0  0  0  0  0  0  0  0  0  0  0  0
  -18.0331   12.6400  -20.2644 H   0  0  0  0  0  0  0  0  0  0  0  0
  -20.3458   11.5863  -20.3474 C   0  0  0  0  0  0  0  0  0  0  0  0
  -20.2988   12.6590  -19.2800 C   0  0  0  0  0  0  0  0  0  0  0  0
  -20.8714   11.3122  -18.9521 C   0  0  0  0  0  0  0  0  0  0  0  0
  -15.4003    0.0329  -14.1845 C   0  0  0  0  0  0  0  0  0  0  0  0
  -14.6631    0.8089  -15.0914 C   0  0  0  0  0  0  0  0  0  0  0  0
  -15.3072    1.6328  -16.0228 C   0  0  0  0  0  0  0  0  0  0  0  0
  -16.6988    1.7467  -16.0018 C   0  0  0  0  0  0  0  0  0  0  0  0
  -17.4543    1.0501  -15.0523 C   0  0  0  0  0  0  0  0  0  0  0  0
  -16.7913    0.2077  -14.1455 C   0  0  0  0  0  0  0  0  0  0  0  0
  -18.9537    1.1742  -15.0001 C   0  0  0  0  0  0  0  0  0  0  0  0
  -19.6155    0.0639  -15.4294 F   0  0  0  0  0  0  0  0  0  0  0  0
  -19.4104    1.4181  -13.7397 F   0  0  0  0  0  0  0  0  0  0  0  0
  -19.4184    2.2009  -15.7662 F   0  0  0  0  0  0  0  0  0  0  0  0
  -14.8346   -0.8486  -13.2494 N   0  0  0  0  0  0  0  0  0  0  0  0
  -15.4545   -0.9342  -12.4456 H   0  0  0  0  0  0  0  0  0  0  0  0
  -14.2950   -2.1310  -13.7105 C   0  0  0  0  0  0  0  0  0  0  0  0
  -14.9086   -3.3452  -12.9740 C   0  0  0  0  0  0  0  0  0  0  0  0
  -13.9344   -4.5397  -12.9793 C   0  0  0  0  0  0  0  0  0  0  0  0
  -16.2576   -3.7442  -13.5825 C   0  0  0  0  0  0  0  0  0  0  0  0
  -15.1050   -2.9124  -11.5203 C   0  0  0  0  0  0  0  0  0  0  0  0
  -16.1507   -2.4689  -11.0620 O   0  0  0  0  0  0  0  0  0  0  0  0
  -13.9283   -2.9701  -10.8340 O   0  0  0  0  0  0  0  0  0  0  0  0
  -12.6828   -4.1442   -9.1705 C   0  0  0  0  0  0  0  0  0  0  0  0
  -14.0221   -3.5102   -9.5084 C   0  0  0  0  0  0  0  0  0  0  0  0
 47 48  1  0  0  0
 48 46  1  0  0  0
 46 44  1  0  0  0
 44 45  2  0  0  0
 44 41  1  0  0  0
 41 42  1  0  0  0
 41 43  1  0  0  0
 41 40  1  0  0  0
 40 38  1  0  0  0
 38 28  1  0  0  0
 38 39  1  0  0  0
 28 29  1  0  0  0
 28 33  2  0  0  0
 29 30  2  0  0  0
 30  1  1  0  0  0
 30 31  1  0  0  0
  1  2  1  0  0  0
  1  5  1  0  0  0
  2  3  2  0  0  0
  2  4  1  0  0  0
  4  7  1  0  0  0
  4  6  1  0  0  0
  7  8  1  0  0  0
  7 13  2  0  0  0
  8  9  2  0  0  0
  9 10  1  0  0  0
 10 14  1  0  0  0
 10 11  2  0  0  0
 14 15  1  0  0  0
 15 16  1  0  0  0
 15 20  2  0  0  0
 16 17  2  0  0  0
 17 18  1  0  0  0
 18 19  2  0  0  0
 19 21  1  0  0  0
 19 20  1  0  0  0
 21 22  1  0  0  0
 21 24  1  0  0  0
 22 23  2  0  0  0
 22 25  1  0  0  0
 25 26  1  0  0  0
 25 27  1  0  0  0
 26 27  1  0  0  0
 11 12  1  0  0  0
 11 13  1  0  0  0
 31 32  2  0  0  0
 32 34  1  0  0  0
 32 33  1  0  0  0
 34 35  1  0  0  0
 34 36  1  0  0  0
 34 37  1  0  0  0
M  END
> <minimizedAffinity>
-7.37118

$$$$
