CHEMBL3656091


 39 42  0  0  0  0  0  0  0  0999 V2000
  -23.4694   -1.1332  -13.3763 C   0  0  0  0  0  0  0  0  0  0  0  0
  -23.4701   -1.2542  -11.9858 C   0  0  0  0  0  0  0  0  0  0  0  0
  -24.6419   -1.5846  -11.3045 C   0  0  0  0  0  0  0  0  0  0  0  0
  -25.8547   -1.7139  -11.9830 C   0  0  0  0  0  0  0  0  0  0  0  0
  -25.8508   -1.5444  -13.3720 C   0  0  0  0  0  0  0  0  0  0  0  0
  -27.0012   -1.6611  -14.0579 F   0  0  0  0  0  0  0  0  0  0  0  0
  -24.6744   -1.2511  -14.0716 C   0  0  0  0  0  0  0  0  0  0  0  0
  -27.0624   -2.0247  -11.3100 N   0  0  0  0  0  0  0  0  0  0  0  0
  -27.2046   -2.0148   -9.9305 C   0  0  0  0  0  0  0  0  0  0  0  0
  -26.3745   -1.5523   -9.1579 O   0  0  0  0  0  0  0  0  0  0  0  0
  -28.3791   -2.6296   -9.5237 N   0  0  0  0  0  0  0  0  0  0  0  0
  -27.9131   -1.9717  -11.8576 H   0  0  0  0  0  0  0  0  0  0  0  0
  -28.6645   -3.3986  -10.1133 H   0  0  0  0  0  0  0  0  0  0  0  0
  -28.6990   -2.7431   -8.1479 C   0  0  0  0  0  0  0  0  0  0  0  0
  -29.4361   -3.8467   -7.7179 C   0  0  0  0  0  0  0  0  0  0  0  0
  -29.7015   -4.0224   -6.3575 C   0  0  0  0  0  0  0  0  0  0  0  0
  -29.2818   -3.0686   -5.4286 C   0  0  0  0  0  0  0  0  0  0  0  0
  -28.5837   -1.9328   -5.8495 C   0  0  0  0  0  0  0  0  0  0  0  0
  -28.1723   -0.8745   -4.8680 C   0  0  0  0  0  0  0  0  0  0  0  0
  -28.2831   -1.7854   -7.2125 C   0  0  0  0  0  0  0  0  0  0  0  0
  -22.3338   -0.8672  -14.1225 O   0  0  0  0  0  0  0  0  0  0  0  0
  -20.3119    2.1319  -14.8039 C   0  0  0  0  0  0  0  0  0  0  0  0
  -20.6851    0.7958  -14.8059 C   0  0  0  0  0  0  0  0  0  0  0  0
  -21.9146    0.4421  -14.2586 C   0  0  0  0  0  0  0  0  0  0  0  0
  -22.7859    1.4441  -13.8512 C   0  0  0  0  0  0  0  0  0  0  0  0
  -22.3508    2.7590  -13.9369 C   0  0  0  0  0  0  0  0  0  0  0  0
  -21.1254    3.1275  -14.3815 N   0  0  0  0  0  0  0  0  0  0  0  0
  -16.7922    2.6660  -15.9126 C   0  0  0  0  0  0  0  0  0  0  0  0
  -17.2648    3.9463  -15.6698 C   0  0  0  0  0  0  0  0  0  0  0  0
  -18.5702    3.8557  -15.2498 N   0  0  0  0  0  0  0  0  0  0  0  0
  -18.9732    2.5411  -15.2167 C   0  0  0  0  0  0  0  0  0  0  0  0
  -17.8759    1.7930  -15.6027 C   0  0  0  0  0  0  0  0  0  0  0  0
  -19.1764    4.6260  -14.9942 H   0  0  0  0  0  0  0  0  0  0  0  0
  -15.3754    0.8777  -16.6815 N   0  0  0  0  0  0  0  0  0  0  0  0
  -15.4812    2.2206  -16.3896 C   0  0  0  0  0  0  0  0  0  0  0  0
  -14.5390    2.9994  -16.4975 O   0  0  0  0  0  0  0  0  0  0  0  0
  -16.1966    0.2961  -16.6253 H   0  0  0  0  0  0  0  0  0  0  0  0
  -14.0838    0.1712  -18.6472 C   0  0  0  0  0  0  0  0  0  0  0  0
  -14.1298    0.3028  -17.1362 C   0  0  0  0  0  0  0  0  0  0  0  0
 38 39  1  0  0  0
 39 34  1  0  0  0
 34 35  1  0  0  0
 34 37  1  0  0  0
 35 36  2  0  0  0
 35 28  1  0  0  0
 28 29  2  0  0  0
 28 32  1  0  0  0
 29 30  1  0  0  0
 30 31  1  0  0  0
 30 33  1  0  0  0
 31 22  1  0  0  0
 31 32  2  0  0  0
 22 23  1  0  0  0
 22 27  2  0  0  0
 23 24  2  0  0  0
 24 21  1  0  0  0
 24 25  1  0  0  0
 21  1  1  0  0  0
  1  2  1  0  0  0
  1  7  2  0  0  0
  2  3  2  0  0  0
  3  4  1  0  0  0
  4  8  1  0  0  0
  4  5  2  0  0  0
  8  9  1  0  0  0
  8 12  1  0  0  0
  9 10  2  0  0  0
  9 11  1  0  0  0
 11 14  1  0  0  0
 11 13  1  0  0  0
 14 15  1  0  0  0
 14 20  2  0  0  0
 15 16  2  0  0  0
 16 17  1  0  0  0
 17 18  2  0  0  0
 18 19  1  0  0  0
 18 20  1  0  0  0
  5  6  1  0  0  0
  5  7  1  0  0  0
 25 26  2  0  0  0
 26 27  1  0  0  0
M  END
> <minimizedAffinity>
-12.05274

$$$$
