CHEMBL4286642


 26 29  0  0  0  0  0  0  0  0999 V2000
  -26.2107   -9.8337   -3.8421 C   0  0  0  0  0  0  0  0  0  0  0  0
  -27.2070  -10.6927   -4.1041 N   0  0  0  0  0  0  0  0  0  0  0  0
  -28.2920  -10.1782   -4.7208 C   0  0  0  0  0  0  0  0  0  0  0  0
  -28.4181   -8.8515   -5.0793 C   0  0  0  0  0  0  0  0  0  0  0  0
  -27.3413   -8.0465   -4.7407 C   0  0  0  0  0  0  0  0  0  0  0  0
  -26.2235   -8.5350   -4.1674 N   0  0  0  0  0  0  0  0  0  0  0  0
  -27.3662   -6.6484   -4.8543 N   0  0  0  0  0  0  0  0  0  0  0  0
  -28.4274   -5.9707   -4.3685 C   0  0  0  0  0  0  0  0  0  0  0  0
  -28.3455   -4.9364   -3.5298 N   0  0  0  0  0  0  0  0  0  0  0  0
  -29.6284   -4.6843   -3.2128 N   0  0  0  0  0  0  0  0  0  0  0  0
  -30.5318   -5.5160   -3.8178 C   0  0  0  0  0  0  0  0  0  0  0  0
  -31.9891   -5.4226   -3.6006 C   0  0  0  0  0  0  0  0  0  0  0  0
  -29.7687   -6.3436   -4.5973 C   0  0  0  0  0  0  0  0  0  0  0  0
  -30.2799   -7.2519   -5.5167 N   0  0  0  0  0  0  0  0  0  0  0  0
  -29.6460   -8.3578   -5.7754 C   0  0  0  0  0  0  0  0  0  0  0  0
  -26.4773   -6.3002   -4.5106 H   0  0  0  0  0  0  0  0  0  0  0  0
  -29.8195   -3.9247   -2.5701 H   0  0  0  0  0  0  0  0  0  0  0  0
  -30.2063   -9.1818   -6.9238 C   0  0  0  0  0  0  0  0  0  0  0  0
  -31.2845  -10.0515   -6.6665 C   0  0  0  0  0  0  0  0  0  0  0  0
  -31.7645  -10.9150   -7.6538 C   0  0  0  0  0  0  0  0  0  0  0  0
  -31.1586  -10.9458   -8.9032 C   0  0  0  0  0  0  0  0  0  0  0  0
  -30.0906  -10.0941   -9.1769 C   0  0  0  0  0  0  0  0  0  0  0  0
  -29.6083   -9.1946   -8.2070 C   0  0  0  0  0  0  0  0  0  0  0  0
  -28.4630   -8.2981   -8.5993 C   0  0  0  0  0  0  0  0  0  0  0  0
  -23.6049  -10.5285   -4.2852 C   0  0  0  0  0  0  0  0  0  0  0  0
  -24.8149  -10.4486   -2.9365 S   0  0  0  0  0  0  0  0  0  0  0  0
 25 26  1  0  0  0
 26  1  1  0  0  0
  1  2  1  0  0  0
  1  6  2  0  0  0
  2  3  2  0  0  0
  3  4  1  0  0  0
  4  5  2  0  0  0
  4 15  1  0  0  0
  5  6  1  0  0  0
  5  7  1  0  0  0
  7  8  1  0  0  0
  7 16  1  0  0  0
  8  9  2  0  0  0
  8 13  1  0  0  0
  9 10  1  0  0  0
 10 11  1  0  0  0
 10 17  1  0  0  0
 11 12  1  0  0  0
 11 13  2  0  0  0
 13 14  1  0  0  0
 14 15  2  0  0  0
 15 18  1  0  0  0
 18 19  1  0  0  0
 18 23  2  0  0  0
 19 20  2  0  0  0
 20 21  1  0  0  0
 21 22  2  0  0  0
 22 23  1  0  0  0
 23 24  1  0  0  0
M  END
> <minimizedAffinity>
-6.98608

$$$$
