CHEMBL2047241


 25 28  0  0  0  0  0  0  0  0999 V2000
  -32.0622   -5.5377   -2.5102 N   0  0  0  0  0  0  0  0  0  0  0  0
  -31.3166   -5.0533   -3.5649 C   0  0  0  0  0  0  0  0  0  0  0  0
  -30.8103   -3.8253   -3.4593 N   0  0  0  0  0  0  0  0  0  0  0  0
  -30.1098   -3.4304   -4.5326 C   0  0  0  0  0  0  0  0  0  0  0  0
  -29.8758   -4.1902   -5.6764 C   0  0  0  0  0  0  0  0  0  0  0  0
  -30.4320   -5.4446   -5.6781 C   0  0  0  0  0  0  0  0  0  0  0  0
  -31.1391   -5.8771   -4.6062 N   0  0  0  0  0  0  0  0  0  0  0  0
  -29.1243   -3.3987   -6.6296 C   0  0  0  0  0  0  0  0  0  0  0  0
  -28.6747   -3.6775   -7.9094 C   0  0  0  0  0  0  0  0  0  0  0  0
  -27.9728   -2.6846   -8.6039 C   0  0  0  0  0  0  0  0  0  0  0  0
  -27.7346   -1.4272   -8.0246 C   0  0  0  0  0  0  0  0  0  0  0  0
  -28.1960   -1.1361   -6.7414 C   0  0  0  0  0  0  0  0  0  0  0  0
  -28.8849   -2.1263   -6.0605 C   0  0  0  0  0  0  0  0  0  0  0  0
  -29.4989   -2.0454   -4.6790 C   0  0  0  0  0  0  0  0  0  0  0  0
  -31.8063   -5.0602   -1.6564 H   0  0  0  0  0  0  0  0  0  0  0  0
  -32.0360   -6.5466   -2.5104 H   0  0  0  0  0  0  0  0  0  0  0  0
  -30.2904   -6.3064   -6.7900 N   0  0  0  0  0  0  0  0  0  0  0  0
  -29.3587   -6.2080   -7.1774 H   0  0  0  0  0  0  0  0  0  0  0  0
  -30.7882   -7.6280   -6.8482 C   0  0  0  0  0  0  0  0  0  0  0  0
  -32.1043   -7.8856   -7.2706 C   0  0  0  0  0  0  0  0  0  0  0  0
  -32.6055   -9.1845   -7.3252 C   0  0  0  0  0  0  0  0  0  0  0  0
  -31.7769  -10.2424   -6.9850 C   0  0  0  0  0  0  0  0  0  0  0  0
  -32.2581  -11.4921   -7.0158 F   0  0  0  0  0  0  0  0  0  0  0  0
  -30.4550  -10.0230   -6.6160 C   0  0  0  0  0  0  0  0  0  0  0  0
  -29.9550   -8.7175   -6.5616 C   0  0  0  0  0  0  0  0  0  0  0  0
  1  2  1  0  0  0
  1 15  1  0  0  0
  1 16  1  0  0  0
  2  3  1  0  0  0
  2  7  2  0  0  0
  3  4  2  0  0  0
  4  5  1  0  0  0
  4 14  1  0  0  0
  5  6  2  0  0  0
  5  8  1  0  0  0
  6 17  1  0  0  0
  6  7  1  0  0  0
 17 19  1  0  0  0
 17 18  1  0  0  0
 19 20  1  0  0  0
 19 25  2  0  0  0
 20 21  2  0  0  0
 21 22  1  0  0  0
 22 23  1  0  0  0
 22 24  2  0  0  0
 24 25  1  0  0  0
  8  9  1  0  0  0
  8 13  2  0  0  0
  9 10  2  0  0  0
 10 11  1  0  0  0
 11 12  2  0  0  0
 12 13  1  0  0  0
 13 14  1  0  0  0
M  END
> <minimizedAffinity>
-8.71116

$$$$
