CHEMBL2088107


 31 34  0  0  0  0  0  0  0  0999 V2000
  -27.3508   -9.9466   -6.5485 C   0  0  0  0  0  0  0  0  0  0  0  0
  -28.0578   -9.2454   -5.6388 N   0  0  0  0  0  0  0  0  0  0  0  0
  -29.1178   -8.5364   -6.0312 C   0  0  0  0  0  0  0  0  0  0  0  0
  -29.5131   -8.4339   -7.3022 N   0  0  0  0  0  0  0  0  0  0  0  0
  -28.7926   -9.1264   -8.2085 C   0  0  0  0  0  0  0  0  0  0  0  0
  -27.6995   -9.9011   -7.8887 C   0  0  0  0  0  0  0  0  0  0  0  0
  -26.7928  -10.8667   -9.2337 Br  0  0  0  0  0  0  0  0  0  0  0  0
  -26.2781  -10.7501   -6.1133 N   0  0  0  0  0  0  0  0  0  0  0  0
  -26.5706  -11.5545   -5.5699 H   0  0  0  0  0  0  0  0  0  0  0  0
  -21.3837  -10.5236   -6.9552 C   0  0  0  0  0  0  0  0  0  0  0  0
  -22.7724  -10.3952   -6.4694 C   0  0  0  0  0  0  0  0  0  0  0  0
  -23.9302  -11.0380   -6.8397 C   0  0  0  0  0  0  0  0  0  0  0  0
  -24.9557  -10.4699   -6.0516 C   0  0  0  0  0  0  0  0  0  0  0  0
  -24.4627   -9.5629   -5.2040 N   0  0  0  0  0  0  0  0  0  0  0  0
  -23.1506   -9.5172   -5.4953 N   0  0  0  0  0  0  0  0  0  0  0  0
  -22.5710   -8.8554   -4.9906 H   0  0  0  0  0  0  0  0  0  0  0  0
  -29.8219   -7.9441   -5.0049 N   0  0  0  0  0  0  0  0  0  0  0  0
  -30.1805   -8.6931   -4.4240 H   0  0  0  0  0  0  0  0  0  0  0  0
  -29.1557   -6.8739   -4.2926 C   0  0  0  0  0  0  0  0  0  0  0  0
  -29.1680   -5.6073   -5.0723 C   0  0  0  0  0  0  0  0  0  0  0  0
  -28.2597   -4.5926   -5.2426 C   0  0  0  0  0  0  0  0  0  0  0  0
  -28.8493   -3.7361   -6.2085 C   0  0  0  0  0  0  0  0  0  0  0  0
  -30.0740   -4.1819   -6.5421 N   0  0  0  0  0  0  0  0  0  0  0  0
  -30.2611   -5.3583   -5.8390 O   0  0  0  0  0  0  0  0  0  0  0  0
  -28.2345   -2.5250   -6.7656 C   0  0  0  0  0  0  0  0  0  0  0  0
  -27.5433   -2.5922   -7.7840 O   0  0  0  0  0  0  0  0  0  0  0  0
  -28.5126   -1.2968   -6.1765 N   0  0  0  0  0  0  0  0  0  0  0  0
  -29.4474   -1.0133   -5.1007 C   0  0  0  0  0  0  0  0  0  0  0  0
  -29.9850    0.3624   -5.4553 C   0  0  0  0  0  0  0  0  0  0  0  0
  -28.7885    1.0576   -6.0918 C   0  0  0  0  0  0  0  0  0  0  0  0
  -28.0119   -0.0684   -6.7669 C   0  0  0  0  0  0  0  0  0  0  0  0
 10 11  1  0  0  0
 11 12  2  0  0  0
 11 15  1  0  0  0
 12 13  1  0  0  0
 13  8  1  0  0  0
 13 14  2  0  0  0
  8  1  1  0  0  0
  8  9  1  0  0  0
  1  2  1  0  0  0
  1  6  2  0  0  0
  2  3  2  0  0  0
  3 17  1  0  0  0
  3  4  1  0  0  0
 17 19  1  0  0  0
 17 18  1  0  0  0
 19 20  1  0  0  0
 20 21  2  0  0  0
 20 24  1  0  0  0
 21 22  1  0  0  0
 22 25  1  0  0  0
 22 23  2  0  0  0
 25 26  2  0  0  0
 25 27  1  0  0  0
 27 28  1  0  0  0
 27 31  1  0  0  0
 28 29  1  0  0  0
 29 30  1  0  0  0
 30 31  1  0  0  0
 23 24  1  0  0  0
  4  5  2  0  0  0
  5  6  1  0  0  0
  6  7  1  0  0  0
 14 15  1  0  0  0
 15 16  1  0  0  0
M  END
> <minimizedAffinity>
-8.25614

$$$$
