CHEMBL401064


 36 41  0  0  0  0  0  0  0  0999 V2000
  -29.5131   -8.1875   -6.9547 C   0  0  0  0  0  0  0  0  0  0  0  0
  -30.2667   -8.5149   -8.0195 N   0  0  0  0  0  0  0  0  0  0  0  0
  -29.6433   -9.6144   -8.5027 N   0  0  0  0  0  0  0  0  0  0  0  0
  -28.5835  -10.0268   -7.7482 C   0  0  0  0  0  0  0  0  0  0  0  0
  -27.8519  -11.1357   -7.9346 N   0  0  0  0  0  0  0  0  0  0  0  0
  -26.8737  -11.2708   -6.9956 C   0  0  0  0  0  0  0  0  0  0  0  0
  -26.5286  -10.3661   -5.9780 C   0  0  0  0  0  0  0  0  0  0  0  0
  -27.3582   -9.2374   -5.8577 C   0  0  0  0  0  0  0  0  0  0  0  0
  -28.4280   -9.0784   -6.7561 C   0  0  0  0  0  0  0  0  0  0  0  0
  -29.9962  -10.0611   -9.3398 H   0  0  0  0  0  0  0  0  0  0  0  0
  -29.3906   -3.9333   -4.4589 C   0  0  0  0  0  0  0  0  0  0  0  0
  -30.2811   -3.3498   -3.5332 C   0  0  0  0  0  0  0  0  0  0  0  0
  -31.4660   -3.9854   -3.1511 C   0  0  0  0  0  0  0  0  0  0  0  0
  -31.8279   -5.2286   -3.6789 C   0  0  0  0  0  0  0  0  0  0  0  0
  -30.9490   -5.7898   -4.6044 C   0  0  0  0  0  0  0  0  0  0  0  0
  -30.9833   -6.9598   -5.3172 N   0  0  0  0  0  0  0  0  0  0  0  0
  -29.8452   -7.0334   -6.0753 C   0  0  0  0  0  0  0  0  0  0  0  0
  -29.0852   -5.9733   -5.8971 N   0  0  0  0  0  0  0  0  0  0  0  0
  -29.7581   -5.1848   -4.9942 C   0  0  0  0  0  0  0  0  0  0  0  0
  -31.6945   -7.6769   -5.2875 H   0  0  0  0  0  0  0  0  0  0  0  0
  -28.1129   -3.2350   -4.8421 C   0  0  0  0  0  0  0  0  0  0  0  0
  -28.0038   -1.8599   -4.3347 N   0  0  0  0  0  0  0  0  0  0  0  0
  -28.9221   -1.5740   -3.9977 H   0  0  0  0  0  0  0  0  0  0  0  0
  -27.7859   -1.3227   -6.7761 C   0  0  0  0  0  0  0  0  0  0  0  0
  -27.5337   -0.8851   -5.3315 C   0  0  0  0  0  0  0  0  0  0  0  0
  -28.2544    0.4399   -5.0657 C   0  0  0  0  0  0  0  0  0  0  0  0
  -25.3943  -10.5997   -5.0435 C   0  0  0  0  0  0  0  0  0  0  0  0
  -25.6328  -10.5893   -3.6596 C   0  0  0  0  0  0  0  0  0  0  0  0
  -24.7140  -10.8188   -2.6954 N   0  0  0  0  0  0  0  0  0  0  0  0
  -23.4689  -11.1079   -3.1176 C   0  0  0  0  0  0  0  0  0  0  0  0
  -23.0816  -11.1642   -4.4541 C   0  0  0  0  0  0  0  0  0  0  0  0
  -21.7619  -11.5086   -4.8010 C   0  0  0  0  0  0  0  0  0  0  0  0
  -21.3655  -11.5620   -6.1341 C   0  0  0  0  0  0  0  0  0  0  0  0
  -22.2696  -11.2234   -7.1280 C   0  0  0  0  0  0  0  0  0  0  0  0
  -23.5748  -10.8546   -6.7887 C   0  0  0  0  0  0  0  0  0  0  0  0
  -24.0464  -10.8676   -5.4495 C   0  0  0  0  0  0  0  0  0  0  0  0
 24 25  1  0  0  0
 25 26  1  0  0  0
 25 22  1  0  0  0
 22 21  1  0  0  0
 22 23  1  0  0  0
 21 11  1  0  0  0
 11 12  1  0  0  0
 11 19  2  0  0  0
 12 13  2  0  0  0
 13 14  1  0  0  0
 14 15  2  0  0  0
 15 16  1  0  0  0
 15 19  1  0  0  0
 16 17  1  0  0  0
 16 20  1  0  0  0
 17  1  1  0  0  0
 17 18  2  0  0  0
  1  2  2  0  0  0
  1  9  1  0  0  0
  2  3  1  0  0  0
  3  4  1  0  0  0
  3 10  1  0  0  0
  4  5  1  0  0  0
  4  9  2  0  0  0
  5  6  2  0  0  0
  6  7  1  0  0  0
  7 27  1  0  0  0
  7  8  2  0  0  0
 27 28  1  0  0  0
 27 36  2  0  0  0
 28 29  2  0  0  0
 29 30  1  0  0  0
 30 31  2  0  0  0
 31 32  1  0  0  0
 31 36  1  0  0  0
 32 33  2  0  0  0
 33 34  1  0  0  0
 34 35  2  0  0  0
 35 36  1  0  0  0
  8  9  1  0  0  0
 18 19  1  0  0  0
M  END
> <minimizedAffinity>
-9.69918

$$$$
