CHEMBL1172815


 31 34  0  0  0  0  0  0  0  0999 V2000
  -29.0646   -6.9015   -4.5284 C   0  0  0  0  0  0  0  0  0  0  0  0
  -30.1237   -6.3417   -3.7804 C   0  0  0  0  0  0  0  0  0  0  0  0
  -30.4824   -4.9854   -3.9163 C   0  0  0  0  0  0  0  0  0  0  0  0
  -29.7410   -4.2058   -4.7875 C   0  0  0  0  0  0  0  0  0  0  0  0
  -28.6212   -4.7498   -5.4201 C   0  0  0  0  0  0  0  0  0  0  0  0
  -28.3328   -6.0928   -5.4034 C   0  0  0  0  0  0  0  0  0  0  0  0
  -27.6855   -3.7400   -5.7015 N   0  0  0  0  0  0  0  0  0  0  0  0
  -28.0778   -2.5808   -5.0407 C   0  0  0  0  0  0  0  0  0  0  0  0
  -27.3901   -1.7175   -4.5348 O   0  0  0  0  0  0  0  0  0  0  0  0
  -29.5654   -2.7575   -4.9289 C   0  0  0  0  0  0  0  0  0  0  0  0
  -30.2671   -1.9459   -5.7524 C   0  0  0  0  0  0  0  0  0  0  0  0
  -26.7123   -3.9324   -5.8871 H   0  0  0  0  0  0  0  0  0  0  0  0
  -27.2157   -9.9763   -3.8660 N   0  0  0  0  0  0  0  0  0  0  0  0
  -27.3574   -8.6138   -4.0870 C   0  0  0  0  0  0  0  0  0  0  0  0
  -26.4291   -7.8113   -4.0813 O   0  0  0  0  0  0  0  0  0  0  0  0
  -28.6857   -8.2449   -4.2773 N   0  0  0  0  0  0  0  0  0  0  0  0
  -27.9706  -10.5775   -4.1635 H   0  0  0  0  0  0  0  0  0  0  0  0
  -29.3708   -8.8443   -3.8429 H   0  0  0  0  0  0  0  0  0  0  0  0
  -22.2448  -12.4658   -2.3959 C   0  0  0  0  0  0  0  0  0  0  0  0
  -23.5502  -11.8162   -2.7843 C   0  0  0  0  0  0  0  0  0  0  0  0
  -24.7355  -12.2776   -2.2415 C   0  0  0  0  0  0  0  0  0  0  0  0
  -25.9498  -11.6841   -2.5922 C   0  0  0  0  0  0  0  0  0  0  0  0
  -25.9989  -10.6059   -3.4816 C   0  0  0  0  0  0  0  0  0  0  0  0
  -24.8047  -10.1489   -4.0367 C   0  0  0  0  0  0  0  0  0  0  0  0
  -23.5909  -10.7533   -3.6879 C   0  0  0  0  0  0  0  0  0  0  0  0
  -29.9370   -0.5748   -5.9673 C   0  0  0  0  0  0  0  0  0  0  0  0
  -30.5331    0.6314   -5.6445 C   0  0  0  0  0  0  0  0  0  0  0  0
  -29.6624    1.6749   -6.0620 C   0  0  0  0  0  0  0  0  0  0  0  0
  -28.5673    1.0855   -6.6459 C   0  0  0  0  0  0  0  0  0  0  0  0
  -28.7495   -0.2681   -6.5993 N   0  0  0  0  0  0  0  0  0  0  0  0
  -28.1429   -0.9465   -7.0442 H   0  0  0  0  0  0  0  0  0  0  0  0
 19 20  1  0  0  0
 20 21  1  0  0  0
 20 25  2  0  0  0
 21 22  2  0  0  0
 22 23  1  0  0  0
 23 13  1  0  0  0
 23 24  2  0  0  0
 13 14  1  0  0  0
 13 17  1  0  0  0
 14 15  2  0  0  0
 14 16  1  0  0  0
 16  1  1  0  0  0
 16 18  1  0  0  0
  1  2  1  0  0  0
  1  6  2  0  0  0
  2  3  2  0  0  0
  3  4  1  0  0  0
  4  5  2  0  0  0
  4 10  1  0  0  0
  5  6  1  0  0  0
  5  7  1  0  0  0
  7  8  1  0  0  0
  7 12  1  0  0  0
  8  9  2  0  0  0
  8 10  1  0  0  0
 10 11  2  0  0  0
 11 26  1  0  0  0
 26 27  2  0  0  0
 26 30  1  0  0  0
 27 28  1  0  0  0
 28 29  2  0  0  0
 29 30  1  0  0  0
 30 31  1  0  0  0
 24 25  1  0  0  0
M  END
> <minimizedAffinity>
-7.38299

$$$$
