CHEMBL3586057


 32 34  0  0  0  0  0  0  0  0999 V2000
  -25.2624   -0.9828   -9.8727 O   0  0  0  0  0  0  0  0  0  0  0  0
  -25.9136   -1.6764  -10.6442 C   0  0  0  0  0  0  0  0  0  0  0  0
  -25.6829   -1.7513  -12.0088 N   0  0  0  0  0  0  0  0  0  0  0  0
  -26.9961   -2.4493  -10.2565 N   0  0  0  0  0  0  0  0  0  0  0  0
  -26.4007   -2.1762  -12.5750 H   0  0  0  0  0  0  0  0  0  0  0  0
  -27.3811   -3.0754  -10.9466 H   0  0  0  0  0  0  0  0  0  0  0  0
  -24.7044   -0.9954  -12.6998 C   0  0  0  0  0  0  0  0  0  0  0  0
  -23.6605   -1.5747  -13.4175 C   0  0  0  0  0  0  0  0  0  0  0  0
  -22.6321   -0.7936  -13.9482 C   0  0  0  0  0  0  0  0  0  0  0  0
  -22.6249    0.6013  -13.8139 C   0  0  0  0  0  0  0  0  0  0  0  0
  -23.7338    1.1822  -13.1724 C   0  0  0  0  0  0  0  0  0  0  0  0
  -24.7609    0.3973  -12.6215 C   0  0  0  0  0  0  0  0  0  0  0  0
  -21.4681    1.3911  -14.2826 C   0  0  0  0  0  0  0  0  0  0  0  0
  -20.2989    0.7899  -14.7749 C   0  0  0  0  0  0  0  0  0  0  0  0
  -19.1902    1.5600  -15.1221 C   0  0  0  0  0  0  0  0  0  0  0  0
  -19.2798    2.9329  -14.9909 C   0  0  0  0  0  0  0  0  0  0  0  0
  -20.3815    3.5676  -14.5450 N   0  0  0  0  0  0  0  0  0  0  0  0
  -21.4350    2.7855  -14.1979 C   0  0  0  0  0  0  0  0  0  0  0  0
  -27.5722   -2.4828   -8.9643 C   0  0  0  0  0  0  0  0  0  0  0  0
  -27.7138   -1.3556   -8.1474 C   0  0  0  0  0  0  0  0  0  0  0  0
  -28.3107   -1.4311   -6.8805 C   0  0  0  0  0  0  0  0  0  0  0  0
  -28.7809   -2.6708   -6.4301 C   0  0  0  0  0  0  0  0  0  0  0  0
  -28.6674   -3.8154   -7.2348 C   0  0  0  0  0  0  0  0  0  0  0  0
  -28.0528   -3.7099   -8.4968 C   0  0  0  0  0  0  0  0  0  0  0  0
  -28.4592   -0.1925   -6.0280 C   0  0  0  0  0  0  0  0  0  0  0  0
  -28.4501    0.9730   -6.7272 F   0  0  0  0  0  0  0  0  0  0  0  0
  -29.6235   -0.1953   -5.3204 F   0  0  0  0  0  0  0  0  0  0  0  0
  -27.4641   -0.0822   -5.1028 F   0  0  0  0  0  0  0  0  0  0  0  0
  -29.2174   -5.1444   -6.7787 C   0  0  0  0  0  0  0  0  0  0  0  0
  -28.3225   -5.8949   -6.0804 F   0  0  0  0  0  0  0  0  0  0  0  0
  -30.3005   -4.9989   -5.9660 F   0  0  0  0  0  0  0  0  0  0  0  0
  -29.6313   -5.9196   -7.8178 F   0  0  0  0  0  0  0  0  0  0  0  0
  1  2  2  0  0  0
  2  3  1  0  0  0
  2  4  1  0  0  0
  3  7  1  0  0  0
  3  5  1  0  0  0
  7  8  1  0  0  0
  7 12  2  0  0  0
  8  9  2  0  0  0
  9 10  1  0  0  0
 10 13  1  0  0  0
 10 11  2  0  0  0
 13 14  1  0  0  0
 13 18  2  0  0  0
 14 15  2  0  0  0
 15 16  1  0  0  0
 16 17  2  0  0  0
 17 18  1  0  0  0
 11 12  1  0  0  0
  4 19  1  0  0  0
  4  6  1  0  0  0
 19 20  1  0  0  0
 19 24  2  0  0  0
 20 21  2  0  0  0
 21 25  1  0  0  0
 21 22  1  0  0  0
 25 26  1  0  0  0
 25 27  1  0  0  0
 25 28  1  0  0  0
 22 23  2  0  0  0
 23 29  1  0  0  0
 23 24  1  0  0  0
 29 30  1  0  0  0
 29 31  1  0  0  0
 29 32  1  0  0  0
M  END
> <minimizedAffinity>
-11.15853

$$$$
