CHEMBL218431


 44 48  0  0  0  0  0  0  0  0999 V2000
  -28.8571   -8.5319   -6.1125 C   0  0  0  0  0  0  0  0  0  0  0  0
  -29.1070   -8.4718   -4.7350 C   0  0  0  0  0  0  0  0  0  0  0  0
  -29.3834   -7.2575   -4.1204 C   0  0  0  0  0  0  0  0  0  0  0  0
  -29.3743   -6.0861   -4.8713 C   0  0  0  0  0  0  0  0  0  0  0  0
  -29.0701   -6.1051   -6.2454 C   0  0  0  0  0  0  0  0  0  0  0  0
  -28.7793   -7.3409   -6.8795 C   0  0  0  0  0  0  0  0  0  0  0  0
  -28.3811   -7.4478   -8.3270 C   0  0  0  0  0  0  0  0  0  0  0  0
  -29.1880   -4.7923   -6.9754 C   0  0  0  0  0  0  0  0  0  0  0  0
  -30.2844   -4.4012   -7.3571 O   0  0  0  0  0  0  0  0  0  0  0  0
  -27.9816   -4.1198   -7.1756 N   0  0  0  0  0  0  0  0  0  0  0  0
  -27.1790   -4.7171   -7.3159 H   0  0  0  0  0  0  0  0  0  0  0  0
  -27.9506   -2.8512   -7.8119 C   0  0  0  0  0  0  0  0  0  0  0  0
  -27.5866   -2.8373   -9.1666 C   0  0  0  0  0  0  0  0  0  0  0  0
  -27.6033   -1.6465   -9.9086 C   0  0  0  0  0  0  0  0  0  0  0  0
  -27.9509   -0.4606   -9.2586 C   0  0  0  0  0  0  0  0  0  0  0  0
  -28.2678   -0.4690   -7.8933 C   0  0  0  0  0  0  0  0  0  0  0  0
  -28.2684   -1.6503   -7.1259 C   0  0  0  0  0  0  0  0  0  0  0  0
  -28.4786   -1.5690   -5.7558 N   0  0  0  0  0  0  0  0  0  0  0  0
  -27.4071   -1.8173   -4.7896 C   0  0  0  0  0  0  0  0  0  0  0  0
  -27.7903   -2.9830   -3.8760 C   0  0  0  0  0  0  0  0  0  0  0  0
  -29.1512   -2.7456   -3.2236 C   0  0  0  0  0  0  0  0  0  0  0  0
  -30.2134   -2.4739   -4.2836 C   0  0  0  0  0  0  0  0  0  0  0  0
  -29.8060   -1.3232   -5.2033 C   0  0  0  0  0  0  0  0  0  0  0  0
  -27.2825   -1.6237  -11.3811 C   0  0  0  0  0  0  0  0  0  0  0  0
  -28.3523   -1.8984  -12.1781 F   0  0  0  0  0  0  0  0  0  0  0  0
  -26.8085   -0.4152  -11.7945 F   0  0  0  0  0  0  0  0  0  0  0  0
  -26.3245   -2.5321  -11.7188 F   0  0  0  0  0  0  0  0  0  0  0  0
  -28.6156   -9.7507   -6.7370 O   0  0  0  0  0  0  0  0  0  0  0  0
  -26.7285  -10.6261   -7.9741 C   0  0  0  0  0  0  0  0  0  0  0  0
  -25.3730  -11.0237   -7.9091 C   0  0  0  0  0  0  0  0  0  0  0  0
  -24.6663  -11.0491   -6.7027 C   0  0  0  0  0  0  0  0  0  0  0  0
  -23.2190  -11.4193   -6.6337 C   0  0  0  0  0  0  0  0  0  0  0  0
  -25.3580  -10.6865   -5.5620 C   0  0  0  0  0  0  0  0  0  0  0  0
  -26.6517  -10.3101   -5.5573 N   0  0  0  0  0  0  0  0  0  0  0  0
  -27.3034  -10.2440   -6.7508 C   0  0  0  0  0  0  0  0  0  0  0  0
  -27.4297   -9.7795  -11.4455 C   0  0  0  0  0  0  0  0  0  0  0  0
  -28.5070  -10.4929  -11.7856 N   0  0  0  0  0  0  0  0  0  0  0  0
  -29.0142  -11.3095  -10.8484 C   0  0  0  0  0  0  0  0  0  0  0  0
  -28.5020  -11.4227   -9.5794 C   0  0  0  0  0  0  0  0  0  0  0  0
  -27.4173  -10.6235   -9.2845 C   0  0  0  0  0  0  0  0  0  0  0  0
  -26.8713   -9.8108  -10.2269 N   0  0  0  0  0  0  0  0  0  0  0  0
  -27.3463   -9.2730  -13.7971 C   0  0  0  0  0  0  0  0  0  0  0  0
  -26.9134   -8.9827  -12.4536 N   0  0  0  0  0  0  0  0  0  0  0  0
  -25.9143   -8.9225  -12.2977 H   0  0  0  0  0  0  0  0  0  0  0  0
 42 43  1  0  0  0
 43 36  1  0  0  0
 43 44  1  0  0  0
 36 37  1  0  0  0
 36 41  2  0  0  0
 37 38  2  0  0  0
 38 39  1  0  0  0
 39 40  2  0  0  0
 40 29  1  0  0  0
 40 41  1  0  0  0
 29 30  1  0  0  0
 29 35  2  0  0  0
 30 31  2  0  0  0
 31 32  1  0  0  0
 31 33  1  0  0  0
 33 34  2  0  0  0
 34 35  1  0  0  0
 35 28  1  0  0  0
 28  1  1  0  0  0
  1  2  1  0  0  0
  1  6  2  0  0  0
  2  3  2  0  0  0
  3  4  1  0  0  0
  4  5  2  0  0  0
  5  8  1  0  0  0
  5  6  1  0  0  0
  8  9  2  0  0  0
  8 10  1  0  0  0
 10 12  1  0  0  0
 10 11  1  0  0  0
 12 13  1  0  0  0
 12 17  2  0  0  0
 13 14  2  0  0  0
 14 24  1  0  0  0
 14 15  1  0  0  0
 24 25  1  0  0  0
 24 26  1  0  0  0
 24 27  1  0  0  0
 15 16  2  0  0  0
 16 17  1  0  0  0
 17 18  1  0  0  0
 18 19  1  0  0  0
 18 23  1  0  0  0
 19 20  1  0  0  0
 20 21  1  0  0  0
 21 22  1  0  0  0
 22 23  1  0  0  0
  6  7  1  0  0  0
M  END
> <minimizedAffinity>
-8.65545

$$$$
