CHEMBL3758875


 41 45  0  0  0  0  0  0  0  0999 V2000
  -29.5247   -5.7757   -7.1302 C   0  0  0  0  0  0  0  0  0  0  0  0
  -29.0168   -4.7294   -7.8908 C   0  0  0  0  0  0  0  0  0  0  0  0
  -28.6661   -3.4980   -7.3112 C   0  0  0  0  0  0  0  0  0  0  0  0
  -28.2343   -2.3990   -8.0552 C   0  0  0  0  0  0  0  0  0  0  0  0
  -27.8264   -1.2627   -7.4650 N   0  0  0  0  0  0  0  0  0  0  0  0
  -27.8851   -1.2206   -6.1311 C   0  0  0  0  0  0  0  0  0  0  0  0
  -28.3384   -2.1928   -5.3293 N   0  0  0  0  0  0  0  0  0  0  0  0
  -28.7250   -3.3286   -5.9229 C   0  0  0  0  0  0  0  0  0  0  0  0
  -29.1882   -4.3956   -5.1618 C   0  0  0  0  0  0  0  0  0  0  0  0
  -29.5902   -5.6168   -5.7384 C   0  0  0  0  0  0  0  0  0  0  0  0
  -28.9935   -7.7950   -8.3348 C   0  0  0  0  0  0  0  0  0  0  0  0
  -29.9381   -6.9460   -7.6970 O   0  0  0  0  0  0  0  0  0  0  0  0
  -28.2453   -2.4901   -9.4782 N   0  0  0  0  0  0  0  0  0  0  0  0
  -29.1923   -2.4003   -9.8266 H   0  0  0  0  0  0  0  0  0  0  0  0
  -27.2787   -1.9025  -10.3113 C   0  0  0  0  0  0  0  0  0  0  0  0
  -25.9430   -1.9011   -9.9167 C   0  0  0  0  0  0  0  0  0  0  0  0
  -24.9840   -1.2148  -10.6515 C   0  0  0  0  0  0  0  0  0  0  0  0
  -25.3293   -0.5139  -11.8029 C   0  0  0  0  0  0  0  0  0  0  0  0
  -26.6496   -0.5913  -12.2616 C   0  0  0  0  0  0  0  0  0  0  0  0
  -27.6188   -1.2889  -11.5196 C   0  0  0  0  0  0  0  0  0  0  0  0
  -24.4019    0.2875  -12.5156 N   0  0  0  0  0  0  0  0  0  0  0  0
  -23.4065   -0.1985  -13.3504 C   0  0  0  0  0  0  0  0  0  0  0  0
  -23.2368   -1.3714  -13.6687 O   0  0  0  0  0  0  0  0  0  0  0  0
  -24.4620    1.2830  -12.3659 H   0  0  0  0  0  0  0  0  0  0  0  0
  -22.4521    0.7807  -13.9364 C   0  0  0  0  0  0  0  0  0  0  0  0
  -22.6149    2.1676  -13.8776 C   0  0  0  0  0  0  0  0  0  0  0  0
  -21.6148    3.0060  -14.3909 C   0  0  0  0  0  0  0  0  0  0  0  0
  -20.4493    2.4697  -14.9576 C   0  0  0  0  0  0  0  0  0  0  0  0
  -19.3583    3.3468  -15.4956 C   0  0  0  0  0  0  0  0  0  0  0  0
  -20.2887    1.0831  -15.0049 C   0  0  0  0  0  0  0  0  0  0  0  0
  -21.2800    0.2490  -14.4983 C   0  0  0  0  0  0  0  0  0  0  0  0
  -30.0112   -6.5354   -4.8052 O   0  0  0  0  0  0  0  0  0  0  0  0
  -29.0061   -7.1959   -4.0377 C   0  0  0  0  0  0  0  0  0  0  0  0
  -28.4516   -8.3882   -4.8033 C   0  0  0  0  0  0  0  0  0  0  0  0
  -26.9949   -8.6809   -4.4342 C   0  0  0  0  0  0  0  0  0  0  0  0
  -26.6302  -10.0925   -4.6481 N   0  0  0  0  0  0  0  0  0  0  0  0
  -26.0332  -10.6757   -3.4233 C   0  0  0  0  0  0  0  0  0  0  0  0
  -24.5795  -10.2394   -3.1527 C   0  0  0  0  0  0  0  0  0  0  0  0
  -23.7311  -10.4509   -4.2887 O   0  0  0  0  0  0  0  0  0  0  0  0
  -24.2585   -9.7935   -5.4473 C   0  0  0  0  0  0  0  0  0  0  0  0
  -25.6736  -10.3007   -5.7576 C   0  0  0  0  0  0  0  0  0  0  0  0
 11 12  1  0  0  0
 12  1  1  0  0  0
  1  2  1  0  0  0
  1 10  2  0  0  0
  2  3  2  0  0  0
  3  4  1  0  0  0
  3  8  1  0  0  0
  4 13  1  0  0  0
  4  5  2  0  0  0
 13 15  1  0  0  0
 13 14  1  0  0  0
 15 16  1  0  0  0
 15 20  2  0  0  0
 16 17  2  0  0  0
 17 18  1  0  0  0
 18 21  1  0  0  0
 18 19  2  0  0  0
 21 22  1  0  0  0
 21 24  1  0  0  0
 22 23  2  0  0  0
 22 25  1  0  0  0
 25 26  1  0  0  0
 25 31  2  0  0  0
 26 27  2  0  0  0
 27 28  1  0  0  0
 28 29  1  0  0  0
 28 30  2  0  0  0
 30 31  1  0  0  0
 19 20  1  0  0  0
  5  6  1  0  0  0
  6  7  2  0  0  0
  7  8  1  0  0  0
  8  9  2  0  0  0
  9 10  1  0  0  0
 10 32  1  0  0  0
 32 33  1  0  0  0
 33 34  1  0  0  0
 34 35  1  0  0  0
 35 36  1  0  0  0
 36 37  1  0  0  0
 36 41  1  0  0  0
 37 38  1  0  0  0
 38 39  1  0  0  0
 39 40  1  0  0  0
 40 41  1  0  0  0
M  END
> <minimizedAffinity>
-9.91270

$$$$
