CHEMBL3128228


 36 40  0  0  0  0  0  0  0  0999 V2000
  -26.7795   -2.6233  -10.3964 N   0  0  0  0  0  0  0  0  0  0  0  0
  -27.4767   -3.3543  -10.4644 H   0  0  0  0  0  0  0  0  0  0  0  0
  -26.3470   -2.1655  -11.6417 C   0  0  0  0  0  0  0  0  0  0  0  0
  -27.2029   -2.1164  -12.6907 N   0  0  0  0  0  0  0  0  0  0  0  0
  -26.7639   -1.6430  -13.8755 C   0  0  0  0  0  0  0  0  0  0  0  0
  -25.5344   -1.1986  -14.1844 N   0  0  0  0  0  0  0  0  0  0  0  0
  -24.7100   -1.2502  -13.1246 C   0  0  0  0  0  0  0  0  0  0  0  0
  -25.0346   -1.7120  -11.8609 C   0  0  0  0  0  0  0  0  0  0  0  0
  -23.8431   -1.5740  -11.1223 C   0  0  0  0  0  0  0  0  0  0  0  0
  -22.8375   -1.0664  -11.8416 N   0  0  0  0  0  0  0  0  0  0  0  0
  -23.3950   -0.8531  -13.0633 N   0  0  0  0  0  0  0  0  0  0  0  0
  -22.5548   -0.3125  -14.1183 C   0  0  0  0  0  0  0  0  0  0  0  0
  -22.4117    1.2102  -14.1365 C   0  0  0  0  0  0  0  0  0  0  0  0
  -21.0503    1.6584  -14.6137 C   0  0  0  0  0  0  0  0  0  0  0  0
  -20.7831    3.0193  -14.8199 C   0  0  0  0  0  0  0  0  0  0  0  0
  -19.5166    3.4376  -15.2326 C   0  0  0  0  0  0  0  0  0  0  0  0
  -18.5091    2.5004  -15.4501 C   0  0  0  0  0  0  0  0  0  0  0  0
  -18.7685    1.1440  -15.2615 C   0  0  0  0  0  0  0  0  0  0  0  0
  -20.0341    0.7233  -14.8483 C   0  0  0  0  0  0  0  0  0  0  0  0
  -27.1193   -1.5831   -9.4381 C   0  0  0  0  0  0  0  0  0  0  0  0
  -29.2921   -3.9837   -7.3780 C   0  0  0  0  0  0  0  0  0  0  0  0
  -29.3370   -3.3019   -6.1609 C   0  0  0  0  0  0  0  0  0  0  0  0
  -28.7225   -2.0601   -6.0169 C   0  0  0  0  0  0  0  0  0  0  0  0
  -28.0325   -1.4915   -7.0837 C   0  0  0  0  0  0  0  0  0  0  0  0
  -27.9259   -2.1757   -8.3023 C   0  0  0  0  0  0  0  0  0  0  0  0
  -28.5575   -3.4291   -8.4358 C   0  0  0  0  0  0  0  0  0  0  0  0
  -28.5253   -6.6899   -6.4930 O   0  0  0  0  0  0  0  0  0  0  0  0
  -29.5344   -6.4532   -7.1496 C   0  0  0  0  0  0  0  0  0  0  0  0
  -29.9624   -5.2100   -7.5938 N   0  0  0  0  0  0  0  0  0  0  0  0
  -30.9048   -5.1463   -7.9577 H   0  0  0  0  0  0  0  0  0  0  0  0
  -30.4467   -7.5877   -7.4378 C   0  0  0  0  0  0  0  0  0  0  0  0
  -29.9691   -8.6237   -8.2502 C   0  0  0  0  0  0  0  0  0  0  0  0
  -30.7840   -9.7156   -8.5475 C   0  0  0  0  0  0  0  0  0  0  0  0
  -32.0838   -9.7685   -8.0433 C   0  0  0  0  0  0  0  0  0  0  0  0
  -32.5712   -8.7250   -7.2538 C   0  0  0  0  0  0  0  0  0  0  0  0
  -31.7579   -7.6308   -6.9510 C   0  0  0  0  0  0  0  0  0  0  0  0
 27 28  2  0  0  0
 28 29  1  0  0  0
 28 31  1  0  0  0
 29 21  1  0  0  0
 29 30  1  0  0  0
 21 22  1  0  0  0
 21 26  2  0  0  0
 22 23  2  0  0  0
 23 24  1  0  0  0
 24 25  2  0  0  0
 25 20  1  0  0  0
 25 26  1  0  0  0
 20  1  1  0  0  0
  1  3  1  0  0  0
  1  2  1  0  0  0
  3  4  1  0  0  0
  3  8  2  0  0  0
  4  5  2  0  0  0
  5  6  1  0  0  0
  6  7  2  0  0  0
  7  8  1  0  0  0
  7 11  1  0  0  0
  8  9  1  0  0  0
  9 10  2  0  0  0
 10 11  1  0  0  0
 11 12  1  0  0  0
 12 13  1  0  0  0
 13 14  1  0  0  0
 14 15  1  0  0  0
 14 19  2  0  0  0
 15 16  2  0  0  0
 16 17  1  0  0  0
 17 18  2  0  0  0
 18 19  1  0  0  0
 31 32  1  0  0  0
 31 36  2  0  0  0
 32 33  2  0  0  0
 33 34  1  0  0  0
 34 35  2  0  0  0
 35 36  1  0  0  0
M  END
> <minimizedAffinity>
-11.55405

$$$$
