CHEMBL364259


 27 29  0  0  0  0  0  0  0  0999 V2000
  -29.8723   -7.4235   -4.7882 N   0  0  0  0  0  0  0  0  0  0  0  0
  -30.7948   -7.5003   -4.3728 H   0  0  0  0  0  0  0  0  0  0  0  0
  -29.0182   -3.8323   -5.3956 C   0  0  0  0  0  0  0  0  0  0  0  0
  -29.3672   -3.6931   -6.7356 C   0  0  0  0  0  0  0  0  0  0  0  0
  -29.8394   -4.8040   -7.4421 C   0  0  0  0  0  0  0  0  0  0  0  0
  -29.9845   -6.0445   -6.8037 C   0  0  0  0  0  0  0  0  0  0  0  0
  -29.6622   -6.1795   -5.4329 C   0  0  0  0  0  0  0  0  0  0  0  0
  -29.1346   -5.0659   -4.7610 C   0  0  0  0  0  0  0  0  0  0  0  0
  -28.3767   -2.4550   -4.4696 S   0  0  0  0  0  0  0  0  0  0  0  0
  -27.0422   -2.1947   -4.9727 O   0  0  0  0  0  0  0  0  0  0  0  0
  -28.6003   -2.7523   -3.0685 O   0  0  0  0  0  0  0  0  0  0  0  0
  -28.5827    0.1804   -5.1563 C   0  0  0  0  0  0  0  0  0  0  0  0
  -29.4124   -1.0725   -4.9327 C   0  0  0  0  0  0  0  0  0  0  0  0
  -30.4742   -7.1783   -7.4122 O   0  0  0  0  0  0  0  0  0  0  0  0
  -29.5611   -7.9020   -8.2327 C   0  0  0  0  0  0  0  0  0  0  0  0
  -28.9111   -8.2701   -4.3794 C   0  0  0  0  0  0  0  0  0  0  0  0
  -28.8538   -9.0192   -3.2982 N   0  0  0  0  0  0  0  0  0  0  0  0
  -27.6971   -9.7234   -3.4263 C   0  0  0  0  0  0  0  0  0  0  0  0
  -27.0699   -9.3933   -4.6040 C   0  0  0  0  0  0  0  0  0  0  0  0
  -27.8417   -8.4364   -5.2223 O   0  0  0  0  0  0  0  0  0  0  0  0
  -25.8572   -9.8458   -5.2631 C   0  0  0  0  0  0  0  0  0  0  0  0
  -24.6070   -9.5276   -4.7049 C   0  0  0  0  0  0  0  0  0  0  0  0
  -23.4207   -9.9473   -5.3085 C   0  0  0  0  0  0  0  0  0  0  0  0
  -23.4745  -10.6931   -6.4791 C   0  0  0  0  0  0  0  0  0  0  0  0
  -22.0135  -11.2062   -7.2295 Cl  0  0  0  0  0  0  0  0  0  0  0  0
  -24.7020  -11.0250   -7.0491 C   0  0  0  0  0  0  0  0  0  0  0  0
  -25.8911  -10.6020   -6.4413 C   0  0  0  0  0  0  0  0  0  0  0  0
 12 13  1  0  0  0
 13  9  1  0  0  0
  9 10  2  0  0  0
  9 11  2  0  0  0
  9  3  1  0  0  0
  3  4  1  0  0  0
  3  8  2  0  0  0
  4  5  2  0  0  0
  5  6  1  0  0  0
  6 14  1  0  0  0
  6  7  2  0  0  0
 14 15  1  0  0  0
  7  1  1  0  0  0
  7  8  1  0  0  0
  1 16  1  0  0  0
  1  2  1  0  0  0
 16 17  2  0  0  0
 16 20  1  0  0  0
 17 18  1  0  0  0
 18 19  2  0  0  0
 19 21  1  0  0  0
 19 20  1  0  0  0
 21 22  1  0  0  0
 21 27  2  0  0  0
 22 23  2  0  0  0
 23 24  1  0  0  0
 24 25  1  0  0  0
 24 26  2  0  0  0
 26 27  1  0  0  0
M  END
> <minimizedAffinity>
-7.74662

$$$$
