CHEMBL1762531


 38 42  0  0  0  0  0  0  0  0999 V2000
  -15.2191   -0.8164  -14.5815 N   0  0  0  0  0  0  0  0  0  0  0  0
  -14.3248   -1.0061  -15.0059 H   0  0  0  0  0  0  0  0  0  0  0  0
  -15.8056   -3.7029  -12.5103 C   0  0  0  0  0  0  0  0  0  0  0  0
  -15.9673   -3.1051  -11.2665 C   0  0  0  0  0  0  0  0  0  0  0  0
  -15.8468   -1.7431  -11.2012 C   0  0  0  0  0  0  0  0  0  0  0  0
  -15.5922   -0.9887  -12.2650 N   0  0  0  0  0  0  0  0  0  0  0  0
  -15.4429   -1.6057  -13.4488 C   0  0  0  0  0  0  0  0  0  0  0  0
  -15.5385   -2.9397  -13.6019 N   0  0  0  0  0  0  0  0  0  0  0  0
  -17.2251   -5.6225  -13.0863 C   0  0  0  0  0  0  0  0  0  0  0  0
  -15.9227   -5.1096  -12.6482 N   0  0  0  0  0  0  0  0  0  0  0  0
  -14.8768   -6.0473  -12.5179 C   0  0  0  0  0  0  0  0  0  0  0  0
  -14.9762   -7.3595  -13.0016 C   0  0  0  0  0  0  0  0  0  0  0  0
  -13.9668   -8.2974  -12.7727 C   0  0  0  0  0  0  0  0  0  0  0  0
  -12.8186   -7.9389  -12.0677 C   0  0  0  0  0  0  0  0  0  0  0  0
  -11.6479   -9.1752  -11.7745 Cl  0  0  0  0  0  0  0  0  0  0  0  0
  -12.6494   -6.6251  -11.6087 C   0  0  0  0  0  0  0  0  0  0  0  0
  -13.6960   -5.7029  -11.8345 C   0  0  0  0  0  0  0  0  0  0  0  0
  -11.4405   -6.2144  -10.8042 C   0  0  0  0  0  0  0  0  0  0  0  0
  -11.5500   -6.5770   -9.4305 O   0  0  0  0  0  0  0  0  0  0  0  0
  -12.4732   -6.4236   -9.1639 H   0  0  0  0  0  0  0  0  0  0  0  0
  -15.8238    0.4175  -14.8909 C   0  0  0  0  0  0  0  0  0  0  0  0
  -17.2109    0.5870  -14.7934 C   0  0  0  0  0  0  0  0  0  0  0  0
  -17.8679    1.7640  -15.1637 C   0  0  0  0  0  0  0  0  0  0  0  0
  -17.0608    2.8114  -15.6191 C   0  0  0  0  0  0  0  0  0  0  0  0
  -15.6574    2.7217  -15.7092 C   0  0  0  0  0  0  0  0  0  0  0  0
  -15.0623    1.4991  -15.3488 C   0  0  0  0  0  0  0  0  0  0  0  0
  -19.2375    1.8680  -15.0207 N   0  0  0  0  0  0  0  0  0  0  0  0
  -19.9699    3.1280  -15.1885 C   0  0  0  0  0  0  0  0  0  0  0  0
  -21.1583    3.1372  -14.2067 C   0  0  0  0  0  0  0  0  0  0  0  0
  -22.0031    1.9816  -14.3629 O   0  0  0  0  0  0  0  0  0  0  0  0
  -21.2424    0.7754  -14.1629 C   0  0  0  0  0  0  0  0  0  0  0  0
  -20.0907    0.6761  -15.1724 C   0  0  0  0  0  0  0  0  0  0  0  0
  -14.8979    3.8029  -16.1150 N   0  0  0  0  0  0  0  0  0  0  0  0
  -15.2738    4.6388  -17.2640 C   0  0  0  0  0  0  0  0  0  0  0  0
  -14.1836    4.5772  -18.3400 C   0  0  0  0  0  0  0  0  0  0  0  0
  -12.9073    4.9638  -17.8027 O   0  0  0  0  0  0  0  0  0  0  0  0
  -12.5271    4.0731  -16.7380 C   0  0  0  0  0  0  0  0  0  0  0  0
  -13.5525    4.0631  -15.5852 C   0  0  0  0  0  0  0  0  0  0  0  0
  9 10  1  0  0  0
 10 11  1  0  0  0
 10  3  1  0  0  0
 11 12  1  0  0  0
 11 17  2  0  0  0
 12 13  2  0  0  0
 13 14  1  0  0  0
 14 15  1  0  0  0
 14 16  2  0  0  0
 16 18  1  0  0  0
 16 17  1  0  0  0
 18 19  1  0  0  0
 19 20  1  0  0  0
  3  4  1  0  0  0
  3  8  2  0  0  0
  4  5  2  0  0  0
  5  6  1  0  0  0
  6  7  2  0  0  0
  7  1  1  0  0  0
  7  8  1  0  0  0
  1 21  1  0  0  0
  1  2  1  0  0  0
 21 22  1  0  0  0
 21 26  2  0  0  0
 22 23  2  0  0  0
 23 27  1  0  0  0
 23 24  1  0  0  0
 27 28  1  0  0  0
 27 32  1  0  0  0
 28 29  1  0  0  0
 29 30  1  0  0  0
 30 31  1  0  0  0
 31 32  1  0  0  0
 24 25  2  0  0  0
 25 33  1  0  0  0
 25 26  1  0  0  0
 33 34  1  0  0  0
 33 38  1  0  0  0
 34 35  1  0  0  0
 35 36  1  0  0  0
 36 37  1  0  0  0
 37 38  1  0  0  0
M  END
> <minimizedAffinity>
-9.00767

$$$$
