CHEMBL1996646


 32 35  0  0  0  0  0  0  0  0999 V2000
  -28.5749   -3.7724   -7.9053 C   0  0  0  0  0  0  0  0  0  0  0  0
  -27.8551   -3.4292   -9.0260 N   0  0  0  0  0  0  0  0  0  0  0  0
  -27.2416   -2.2184   -9.0096 C   0  0  0  0  0  0  0  0  0  0  0  0
  -27.3003   -1.3608   -7.9714 N   0  0  0  0  0  0  0  0  0  0  0  0
  -27.9783   -1.6868   -6.8903 C   0  0  0  0  0  0  0  0  0  0  0  0
  -28.0078   -0.7842   -5.8274 C   0  0  0  0  0  0  0  0  0  0  0  0
  -28.6937   -1.0516   -4.6398 C   0  0  0  0  0  0  0  0  0  0  0  0
  -29.3722   -2.2485   -4.5153 C   0  0  0  0  0  0  0  0  0  0  0  0
  -30.2430   -2.6158   -3.0802 Cl  0  0  0  0  0  0  0  0  0  0  0  0
  -29.3456   -3.1668   -5.5604 C   0  0  0  0  0  0  0  0  0  0  0  0
  -28.6478   -2.9058   -6.7750 C   0  0  0  0  0  0  0  0  0  0  0  0
  -29.1924   -5.0260   -7.6889 N   0  0  0  0  0  0  0  0  0  0  0  0
  -29.8462   -5.1825   -8.4543 H   0  0  0  0  0  0  0  0  0  0  0  0
  -28.5937   -6.3429   -7.4780 C   0  0  0  0  0  0  0  0  0  0  0  0
  -30.9003   -7.4131   -6.9597 C   0  0  0  0  0  0  0  0  0  0  0  0
  -31.8279   -8.4738   -7.0594 C   0  0  0  0  0  0  0  0  0  0  0  0
  -31.5848   -9.5743   -7.8672 C   0  0  0  0  0  0  0  0  0  0  0  0
  -30.4153   -9.6200   -8.5980 C   0  0  0  0  0  0  0  0  0  0  0  0
  -29.4832   -8.5606   -8.5268 C   0  0  0  0  0  0  0  0  0  0  0  0
  -29.6760   -7.4482   -7.6645 C   0  0  0  0  0  0  0  0  0  0  0  0
  -30.8014   -6.5266   -4.7757 C   0  0  0  0  0  0  0  0  0  0  0  0
  -31.1493   -6.3330   -6.1491 O   0  0  0  0  0  0  0  0  0  0  0  0
  -28.3415   -8.5889   -9.3105 O   0  0  0  0  0  0  0  0  0  0  0  0
  -27.9213   -9.9039   -9.7054 C   0  0  0  0  0  0  0  0  0  0  0  0
  -26.4723   -1.6245   -9.9609 N   0  0  0  0  0  0  0  0  0  0  0  0
  -26.2642   -0.7052   -9.5785 H   0  0  0  0  0  0  0  0  0  0  0  0
  -25.8541   -1.8492  -11.2455 C   0  0  0  0  0  0  0  0  0  0  0  0
  -24.3649   -1.5431  -11.2819 C   0  0  0  0  0  0  0  0  0  0  0  0
  -23.7581   -1.9857  -12.6196 C   0  0  0  0  0  0  0  0  0  0  0  0
  -24.5008   -1.3901  -13.8143 C   0  0  0  0  0  0  0  0  0  0  0  0
  -26.0020   -1.6663  -13.7541 C   0  0  0  0  0  0  0  0  0  0  0  0
  -26.6199   -1.2373  -12.4153 C   0  0  0  0  0  0  0  0  0  0  0  0
 21 22  1  0  0  0
 22 15  1  0  0  0
 15 16  1  0  0  0
 15 20  2  0  0  0
 16 17  2  0  0  0
 17 18  1  0  0  0
 18 19  2  0  0  0
 19 23  1  0  0  0
 19 20  1  0  0  0
 23 24  1  0  0  0
 20 14  1  0  0  0
 14 12  1  0  0  0
 12  1  1  0  0  0
 12 13  1  0  0  0
  1  2  1  0  0  0
  1 11  2  0  0  0
  2  3  2  0  0  0
  3 25  1  0  0  0
  3  4  1  0  0  0
 25 27  1  0  0  0
 25 26  1  0  0  0
 27 28  1  0  0  0
 27 32  1  0  0  0
 28 29  1  0  0  0
 29 30  1  0  0  0
 30 31  1  0  0  0
 31 32  1  0  0  0
  4  5  2  0  0  0
  5  6  1  0  0  0
  5 11  1  0  0  0
  6  7  2  0  0  0
  7  8  1  0  0  0
  8  9  1  0  0  0
  8 10  2  0  0  0
 10 11  1  0  0  0
M  END
> <minimizedAffinity>
-9.29978

$$$$
