CHEMBL1998121


 28 30  0  0  0  0  0  0  0  0999 V2000
  -30.0864   -4.8238   -4.2529 C   0  0  0  0  0  0  0  0  0  0  0  0
  -29.5852   -3.5422   -4.9386 C   0  0  0  0  0  0  0  0  0  0  0  0
  -29.6777   -2.2909   -4.3015 C   0  0  0  0  0  0  0  0  0  0  0  0
  -29.2047   -1.1307   -4.9142 C   0  0  0  0  0  0  0  0  0  0  0  0
  -28.6191   -1.1972   -6.1781 C   0  0  0  0  0  0  0  0  0  0  0  0
  -28.0514    0.2754   -6.8803 Cl  0  0  0  0  0  0  0  0  0  0  0  0
  -28.5100   -2.4334   -6.8248 C   0  0  0  0  0  0  0  0  0  0  0  0
  -27.7764   -2.5965   -8.3820 Cl  0  0  0  0  0  0  0  0  0  0  0  0
  -28.9930   -3.5974   -6.2087 C   0  0  0  0  0  0  0  0  0  0  0  0
  -29.8167   -6.0733   -5.1185 C   0  0  0  0  0  0  0  0  0  0  0  0
  -28.8969   -6.8430   -4.8506 O   0  0  0  0  0  0  0  0  0  0  0  0
  -30.6539   -6.2168   -6.2210 N   0  0  0  0  0  0  0  0  0  0  0  0
  -31.1645   -5.3909   -6.5236 H   0  0  0  0  0  0  0  0  0  0  0  0
  -30.6663   -7.3469   -7.0865 C   0  0  0  0  0  0  0  0  0  0  0  0
  -31.7748   -8.2010   -7.1794 C   0  0  0  0  0  0  0  0  0  0  0  0
  -31.7742   -9.3474   -7.9883 C   0  0  0  0  0  0  0  0  0  0  0  0
  -30.6121   -9.6091   -8.7079 C   0  0  0  0  0  0  0  0  0  0  0  0
  -30.2787  -10.6413   -9.5466 N   0  0  0  0  0  0  0  0  0  0  0  0
  -29.0421  -10.5421  -10.0649 N   0  0  0  0  0  0  0  0  0  0  0  0
  -28.5731   -9.4069   -9.5351 C   0  0  0  0  0  0  0  0  0  0  0  0
  -29.5037   -8.7731   -8.6780 C   0  0  0  0  0  0  0  0  0  0  0  0
  -29.5358   -7.6075   -7.8761 C   0  0  0  0  0  0  0  0  0  0  0  0
  -30.8457  -11.4412   -9.7975 H   0  0  0  0  0  0  0  0  0  0  0  0
  -31.5876   -4.6526   -3.9326 C   0  0  0  0  0  0  0  0  0  0  0  0
  -31.2258   -6.5438   -2.3836 N   0  0  0  0  0  0  0  0  0  0  0  0
  -32.1150   -5.4441   -2.7401 C   0  0  0  0  0  0  0  0  0  0  0  0
  -31.5651   -6.9637   -1.5143 H   0  0  0  0  0  0  0  0  0  0  0  0
  -30.3102   -6.1589   -2.1342 H   0  0  0  0  0  0  0  0  0  0  0  0
 25 26  1  0  0  0
 25 27  1  0  0  0
 25 28  1  0  0  0
 26 24  1  0  0  0
 24  1  1  0  0  0
  1 10  1  0  0  0
  1  2  1  0  0  0
 10 11  2  0  0  0
 10 12  1  0  0  0
 12 14  1  0  0  0
 12 13  1  0  0  0
 14 15  1  0  0  0
 14 22  2  0  0  0
 15 16  2  0  0  0
 16 17  1  0  0  0
 17 18  1  0  0  0
 17 21  2  0  0  0
 18 19  1  0  0  0
 18 23  1  0  0  0
 19 20  2  0  0  0
 20 21  1  0  0  0
 21 22  1  0  0  0
  2  3  1  0  0  0
  2  9  2  0  0  0
  3  4  2  0  0  0
  4  5  1  0  0  0
  5  6  1  0  0  0
  5  7  2  0  0  0
  7  8  1  0  0  0
  7  9  1  0  0  0
M  END
> <minimizedAffinity>
-8.41438

$$$$
