CHEMBL1940858


 22 24  0  0  0  0  0  0  0  0999 V2000
  -22.0626    3.3070  -14.1872 C   0  0  0  0  0  0  0  0  0  0  0  0
  -20.7759    2.6616  -14.6086 C   0  0  0  0  0  0  0  0  0  0  0  0
  -20.6366    1.2744  -14.6534 C   0  0  0  0  0  0  0  0  0  0  0  0
  -19.4222    0.7054  -15.0449 C   0  0  0  0  0  0  0  0  0  0  0  0
  -18.3288    1.5221  -15.3870 C   0  0  0  0  0  0  0  0  0  0  0  0
  -17.0799    0.9904  -15.7553 C   0  0  0  0  0  0  0  0  0  0  0  0
  -15.9965    1.8306  -16.0518 C   0  0  0  0  0  0  0  0  0  0  0  0
  -16.2546    3.2014  -15.9538 C   0  0  0  0  0  0  0  0  0  0  0  0
  -15.0571    4.4271  -16.1550 Cl  0  0  0  0  0  0  0  0  0  0  0  0
  -17.4510    3.7474  -15.6372 N   0  0  0  0  0  0  0  0  0  0  0  0
  -18.4661    2.9218  -15.3483 C   0  0  0  0  0  0  0  0  0  0  0  0
  -19.6850    3.4649  -14.9753 C   0  0  0  0  0  0  0  0  0  0  0  0
  -14.7059    1.1878  -16.3661 C   0  0  0  0  0  0  0  0  0  0  0  0
  -14.3794    0.6957  -17.5710 C   0  0  0  0  0  0  0  0  0  0  0  0
  -13.0670    0.0154  -17.8409 C   0  0  0  0  0  0  0  0  0  0  0  0
  -12.0904    0.6969  -18.1482 O   0  0  0  0  0  0  0  0  0  0  0  0
  -13.0483   -1.4377  -17.7492 C   0  0  0  0  0  0  0  0  0  0  0  0
  -13.3396   -2.3965  -19.1533 S   0  0  0  0  0  0  0  0  0  0  0  0
  -13.1254   -3.8565  -18.3000 C   0  0  0  0  0  0  0  0  0  0  0  0
  -12.8941   -3.6412  -16.9612 C   0  0  0  0  0  0  0  0  0  0  0  0
  -12.8715   -2.2521  -16.6497 C   0  0  0  0  0  0  0  0  0  0  0  0
  -12.5508   -1.6937  -14.8706 Br  0  0  0  0  0  0  0  0  0  0  0  0
  1  2  1  0  0  0
  2  3  1  0  0  0
  2 12  2  0  0  0
  3  4  2  0  0  0
  4  5  1  0  0  0
  5  6  1  0  0  0
  5 11  2  0  0  0
  6  7  2  0  0  0
  7 13  1  0  0  0
  7  8  1  0  0  0
 13 14  2  0  0  0
 14 15  1  0  0  0
 15 16  2  0  0  0
 15 17  1  0  0  0
 17 18  1  0  0  0
 17 21  2  0  0  0
 18 19  1  0  0  0
 19 20  2  0  0  0
 20 21  1  0  0  0
 21 22  1  0  0  0
  8  9  1  0  0  0
  8 10  2  0  0  0
 10 11  1  0  0  0
 11 12  1  0  0  0
M  END
> <minimizedAffinity>
-7.07009

$$$$
