CHEMBL3955745


 34 37  0  0  0  0  0  0  0  0999 V2000
  -15.5864    1.1645  -15.9567 N   0  0  0  0  0  0  0  0  0  0  0  0
  -16.8812    1.7503  -15.6928 C   0  0  0  0  0  0  0  0  0  0  0  0
  -17.1259    3.1300  -15.8788 C   0  0  0  0  0  0  0  0  0  0  0  0
  -18.3798    3.6811  -15.6007 C   0  0  0  0  0  0  0  0  0  0  0  0
  -19.4075    2.8693  -15.1216 C   0  0  0  0  0  0  0  0  0  0  0  0
  -20.6300    3.3908  -14.8472 N   0  0  0  0  0  0  0  0  0  0  0  0
  -21.6382    2.6101  -14.3772 C   0  0  0  0  0  0  0  0  0  0  0  0
  -21.4157    1.2384  -14.1623 C   0  0  0  0  0  0  0  0  0  0  0  0
  -20.1876    0.7216  -14.4359 N   0  0  0  0  0  0  0  0  0  0  0  0
  -19.1821    1.4992  -14.9135 C   0  0  0  0  0  0  0  0  0  0  0  0
  -17.9343    0.9479  -15.1945 C   0  0  0  0  0  0  0  0  0  0  0  0
  -22.4812    0.3524  -13.6546 C   0  0  0  0  0  0  0  0  0  0  0  0
  -22.5969   -0.1554  -12.3716 C   0  0  0  0  0  0  0  0  0  0  0  0
  -23.7026   -0.9244  -12.3022 N   0  0  0  0  0  0  0  0  0  0  0  0
  -24.2747   -0.9138  -13.4967 N   0  0  0  0  0  0  0  0  0  0  0  0
  -25.4938   -1.6358  -13.8293 C   0  0  0  0  0  0  0  0  0  0  0  0
  -23.5656   -0.1492  -14.3446 C   0  0  0  0  0  0  0  0  0  0  0  0
  -13.6992    0.9831  -19.2262 C   0  0  0  0  0  0  0  0  0  0  0  0
  -13.3378    2.3266  -19.4112 C   0  0  0  0  0  0  0  0  0  0  0  0
  -13.7219    3.2901  -18.4764 C   0  0  0  0  0  0  0  0  0  0  0  0
  -13.3682    4.5848  -18.6689 F   0  0  0  0  0  0  0  0  0  0  0  0
  -14.4613    2.9288  -17.3420 C   0  0  0  0  0  0  0  0  0  0  0  0
  -14.8233    1.5822  -17.1170 C   0  0  0  0  0  0  0  0  0  0  0  0
  -14.4372    0.6289  -18.0932 C   0  0  0  0  0  0  0  0  0  0  0  0
  -12.7932   -0.8055  -21.8838 H   0  0  0  0  0  0  0  0  0  0  0  0
  -13.0234    0.1812  -21.4306 C   0  0  0  0  0  0  0  0  0  0  0  0
  -12.1208    0.8242  -21.5109 H   0  0  0  0  0  0  0  0  0  0  0  0
  -13.8688    0.6369  -21.9877 H   0  0  0  0  0  0  0  0  0  0  0  0
  -13.3601    0.0016  -20.1047 O   0  0  0  0  0  0  0  0  0  0  0  0
  -15.0374    0.1876  -15.0044 C   0  0  0  0  0  0  0  0  0  0  0  0
  -14.1582    0.8430  -13.9173 C   0  0  0  0  0  0  0  0  0  0  0  0
  -14.7101    0.6481  -12.5817 N   0  0  0  0  0  0  0  0  0  0  0  0
  -15.5955    1.1970  -12.4952 H   0  0  0  0  0  0  0  0  0  0  0  0
  -14.0305    1.0485  -11.8929 H   0  0  0  0  0  0  0  0  0  0  0  0
 25 26  1  0  0  0
 26 27  1  0  0  0
 26 28  1  0  0  0
 26 29  1  0  0  0
 29 18  1  0  0  0
 18 19  1  0  0  0
 18 24  2  0  0  0
 19 20  2  0  0  0
 20 21  1  0  0  0
 20 22  1  0  0  0
 22 23  2  0  0  0
 23  1  1  0  0  0
 23 24  1  0  0  0
  1 30  1  0  0  0
  1  2  1  0  0  0
 30 31  1  0  0  0
 31 32  1  0  0  0
 32 33  1  0  0  0
 32 34  1  0  0  0
  2  3  1  0  0  0
  2 11  2  0  0  0
  3  4  2  0  0  0
  4  5  1  0  0  0
  5  6  1  0  0  0
  5 10  2  0  0  0
  6  7  2  0  0  0
  7  8  1  0  0  0
  8 12  1  0  0  0
  8  9  2  0  0  0
 12 13  1  0  0  0
 12 17  2  0  0  0
 13 14  2  0  0  0
 14 15  1  0  0  0
 15 16  1  0  0  0
 15 17  1  0  0  0
  9 10  1  0  0  0
 10 11  1  0  0  0
M  ISO 1  25   2
M  ISO 1  27   2
M  ISO 1  28   2
M  END
> <minimizedAffinity>
-8.37263

$$$$
