CHEMBL203119


 31 34  0  0  0  0  0  0  0  0999 V2000
  -17.5776    3.1116  -15.6690 C   0  0  0  0  0  0  0  0  0  0  0  0
  -16.8276    3.1968  -16.7451 N   0  0  0  0  0  0  0  0  0  0  0  0
  -15.6019    2.6564  -16.4074 N   0  0  0  0  0  0  0  0  0  0  0  0
  -15.6967    2.2414  -15.1584 C   0  0  0  0  0  0  0  0  0  0  0  0
  -16.9433    2.4712  -14.6415 O   0  0  0  0  0  0  0  0  0  0  0  0
  -14.6297    1.6944  -14.3938 C   0  0  0  0  0  0  0  0  0  0  0  0
  -14.5892    0.5834  -13.5746 C   0  0  0  0  0  0  0  0  0  0  0  0
  -13.3697    0.4512  -12.9767 N   0  0  0  0  0  0  0  0  0  0  0  0
  -12.6539    1.4579  -13.4248 C   0  0  0  0  0  0  0  0  0  0  0  0
  -13.3778    2.2484  -14.2729 N   0  0  0  0  0  0  0  0  0  0  0  0
  -12.9107    3.4846  -14.8535 C   0  0  0  0  0  0  0  0  0  0  0  0
  -15.5787   -0.3061  -13.3723 N   0  0  0  0  0  0  0  0  0  0  0  0
  -16.1067   -0.2737  -12.5052 H   0  0  0  0  0  0  0  0  0  0  0  0
  -15.4928   -1.6409  -13.9370 C   0  0  0  0  0  0  0  0  0  0  0  0
  -15.7884   -2.6729  -12.8768 C   0  0  0  0  0  0  0  0  0  0  0  0
  -15.6461   -2.3579  -11.5217 C   0  0  0  0  0  0  0  0  0  0  0  0
  -15.9608   -3.3191  -10.5745 C   0  0  0  0  0  0  0  0  0  0  0  0
  -16.4071   -4.5565  -10.8799 N   0  0  0  0  0  0  0  0  0  0  0  0
  -16.5400   -4.8427  -12.1923 C   0  0  0  0  0  0  0  0  0  0  0  0
  -16.2481   -3.9505  -13.2139 C   0  0  0  0  0  0  0  0  0  0  0  0
  -18.8312    3.5573  -15.4533 N   0  0  0  0  0  0  0  0  0  0  0  0
  -18.8948    4.4914  -15.0633 H   0  0  0  0  0  0  0  0  0  0  0  0
  -22.0285    1.1210  -14.1114 C   0  0  0  0  0  0  0  0  0  0  0  0
  -20.9086    0.5379  -14.7133 C   0  0  0  0  0  0  0  0  0  0  0  0
  -19.8414    1.3300  -15.1407 C   0  0  0  0  0  0  0  0  0  0  0  0
  -19.8720    2.7234  -14.9912 C   0  0  0  0  0  0  0  0  0  0  0  0
  -20.9561    3.2974  -14.3245 C   0  0  0  0  0  0  0  0  0  0  0  0
  -22.0294    2.5081  -13.9015 C   0  0  0  0  0  0  0  0  0  0  0  0
  -22.8163   -1.2199  -13.6261 C   0  0  0  0  0  0  0  0  0  0  0  0
  -23.2110    0.2537  -13.7222 C   0  0  0  0  0  0  0  0  0  0  0  0
  -23.8505    0.7418  -12.4191 C   0  0  0  0  0  0  0  0  0  0  0  0
 29 30  1  0  0  0
 30 31  1  0  0  0
 30 23  1  0  0  0
 23 24  1  0  0  0
 23 28  2  0  0  0
 24 25  2  0  0  0
 25 26  1  0  0  0
 26 21  1  0  0  0
 26 27  2  0  0  0
 21  1  1  0  0  0
 21 22  1  0  0  0
  1  2  2  0  0  0
  1  5  1  0  0  0
  2  3  1  0  0  0
  3  4  2  0  0  0
  4  6  1  0  0  0
  4  5  1  0  0  0
  6  7  2  0  0  0
  6 10  1  0  0  0
  7 12  1  0  0  0
  7  8  1  0  0  0
 12 14  1  0  0  0
 12 13  1  0  0  0
 14 15  1  0  0  0
 15 16  1  0  0  0
 15 20  2  0  0  0
 16 17  2  0  0  0
 17 18  1  0  0  0
 18 19  2  0  0  0
 19 20  1  0  0  0
  8  9  2  0  0  0
  9 10  1  0  0  0
 10 11  1  0  0  0
 27 28  1  0  0  0
M  END
> <minimizedAffinity>
-9.08328

$$$$
