CHEMBL4105491


 41 45  0  0  0  0  0  0  0  0999 V2000
  -28.9660   -5.0521   -5.4262 C   0  0  0  0  0  0  0  0  0  0  0  0
  -29.6863   -5.0618   -4.4330 O   0  0  0  0  0  0  0  0  0  0  0  0
  -28.3214   -6.1512   -5.9828 N   0  0  0  0  0  0  0  0  0  0  0  0
  -27.6096   -5.9725   -6.6796 H   0  0  0  0  0  0  0  0  0  0  0  0
  -27.8963    0.2756   -7.4690 C   0  0  0  0  0  0  0  0  0  0  0  0
  -28.1820   -1.1235   -6.9940 C   0  0  0  0  0  0  0  0  0  0  0  0
  -28.5862   -1.3204   -5.6681 C   0  0  0  0  0  0  0  0  0  0  0  0
  -28.8279   -2.6058   -5.1893 C   0  0  0  0  0  0  0  0  0  0  0  0
  -28.6719   -3.7212   -6.0241 C   0  0  0  0  0  0  0  0  0  0  0  0
  -28.2947   -3.5390   -7.3578 C   0  0  0  0  0  0  0  0  0  0  0  0
  -28.0426   -2.2424   -7.8400 C   0  0  0  0  0  0  0  0  0  0  0  0
  -27.6268   -2.0755   -9.2017 C   0  0  0  0  0  0  0  0  0  0  0  0
  -27.2713   -1.9638  -10.3469 C   0  0  0  0  0  0  0  0  0  0  0  0
  -26.8919   -1.8468  -11.7229 C   0  0  0  0  0  0  0  0  0  0  0  0
  -27.8652   -1.9478  -12.7134 C   0  0  0  0  0  0  0  0  0  0  0  0
  -27.6198   -1.8242  -14.0378 N   0  0  0  0  0  0  0  0  0  0  0  0
  -26.3396   -1.5721  -14.3875 C   0  0  0  0  0  0  0  0  0  0  0  0
  -25.2789   -1.4379  -13.4869 C   0  0  0  0  0  0  0  0  0  0  0  0
  -23.9724   -1.1437  -13.9129 C   0  0  0  0  0  0  0  0  0  0  0  0
  -22.9396   -0.9981  -12.9873 C   0  0  0  0  0  0  0  0  0  0  0  0
  -23.1941   -1.1707  -11.6324 C   0  0  0  0  0  0  0  0  0  0  0  0
  -24.4847   -1.4731  -11.1973 C   0  0  0  0  0  0  0  0  0  0  0  0
  -25.5592   -1.5930  -12.1105 C   0  0  0  0  0  0  0  0  0  0  0  0
  -28.3608   -7.4608   -5.4363 C   0  0  0  0  0  0  0  0  0  0  0  0
  -27.6172   -7.8331   -4.3196 C   0  0  0  0  0  0  0  0  0  0  0  0
  -27.5732   -9.1624   -3.8974 C   0  0  0  0  0  0  0  0  0  0  0  0
  -28.2826  -10.1641   -4.5774 C   0  0  0  0  0  0  0  0  0  0  0  0
  -29.1054   -9.7999   -5.6643 C   0  0  0  0  0  0  0  0  0  0  0  0
  -29.1410   -8.4371   -6.0676 C   0  0  0  0  0  0  0  0  0  0  0  0
  -29.9246  -10.7818   -6.4840 C   0  0  0  0  0  0  0  0  0  0  0  0
  -29.2649  -11.8308   -7.0388 F   0  0  0  0  0  0  0  0  0  0  0  0
  -30.9034  -11.3598   -5.7226 F   0  0  0  0  0  0  0  0  0  0  0  0
  -30.5882  -10.1647   -7.5046 F   0  0  0  0  0  0  0  0  0  0  0  0
  -28.0598  -11.5989   -4.1341 C   0  0  0  0  0  0  0  0  0  0  0  0
  -26.7255  -12.0913   -4.4754 N   0  0  0  0  0  0  0  0  0  0  0  0
  -26.1645  -11.5231   -5.7126 C   0  0  0  0  0  0  0  0  0  0  0  0
  -24.7794  -12.1406   -6.0202 C   0  0  0  0  0  0  0  0  0  0  0  0
  -23.7849  -12.0017   -4.9372 N   0  0  0  0  0  0  0  0  0  0  0  0
  -23.2987  -10.6288   -4.8333 C   0  0  0  0  0  0  0  0  0  0  0  0
  -24.3854  -12.4660   -3.6694 C   0  0  0  0  0  0  0  0  0  0  0  0
  -25.7858  -11.8874   -3.3575 C   0  0  0  0  0  0  0  0  0  0  0  0
  5  6  1  0  0  0
  6  7  1  0  0  0
  6 11  2  0  0  0
  7  8  2  0  0  0
  8  9  1  0  0  0
  9  1  1  0  0  0
  9 10  2  0  0  0
  1  2  2  0  0  0
  1  3  1  0  0  0
  3 24  1  0  0  0
  3  4  1  0  0  0
 24 25  1  0  0  0
 24 29  2  0  0  0
 25 26  2  0  0  0
 26 27  1  0  0  0
 27 34  1  0  0  0
 27 28  2  0  0  0
 34 35  1  0  0  0
 35 36  1  0  0  0
 35 41  1  0  0  0
 36 37  1  0  0  0
 37 38  1  0  0  0
 38 39  1  0  0  0
 38 40  1  0  0  0
 40 41  1  0  0  0
 28 30  1  0  0  0
 28 29  1  0  0  0
 30 31  1  0  0  0
 30 32  1  0  0  0
 30 33  1  0  0  0
 10 11  1  0  0  0
 11 12  1  0  0  0
 12 13  3  0  0  0
 13 14  1  0  0  0
 14 15  1  0  0  0
 14 23  2  0  0  0
 15 16  2  0  0  0
 16 17  1  0  0  0
 17 18  2  0  0  0
 18 19  1  0  0  0
 18 23  1  0  0  0
 19 20  2  0  0  0
 20 21  1  0  0  0
 21 22  2  0  0  0
 22 23  1  0  0  0
M  END
> <minimizedAffinity>
-10.17377

$$$$
