CHEMBL3660296


 37 40  0  0  0  0  0  0  0  0999 V2000
  -18.6162    1.9655  -15.4196 C   0  0  0  0  0  0  0  0  0  0  0  0
  -19.0511    3.2597  -15.1385 C   0  0  0  0  0  0  0  0  0  0  0  0
  -20.2706    3.4530  -14.4960 C   0  0  0  0  0  0  0  0  0  0  0  0
  -21.0632    2.3535  -14.1604 C   0  0  0  0  0  0  0  0  0  0  0  0
  -20.6723    1.0550  -14.5075 C   0  0  0  0  0  0  0  0  0  0  0  0
  -19.4415    0.8665  -15.1363 C   0  0  0  0  0  0  0  0  0  0  0  0
  -21.4671   -0.0827  -14.2418 N   0  0  0  0  0  0  0  0  0  0  0  0
  -22.8004   -0.0218  -13.8897 C   0  0  0  0  0  0  0  0  0  0  0  0
  -23.4634    1.0128  -13.8576 O   0  0  0  0  0  0  0  0  0  0  0  0
  -23.3096   -1.2690  -13.5690 N   0  0  0  0  0  0  0  0  0  0  0  0
  -21.1628   -0.9657  -14.6270 H   0  0  0  0  0  0  0  0  0  0  0  0
  -22.6727   -1.8482  -13.0338 H   0  0  0  0  0  0  0  0  0  0  0  0
  -24.6725   -1.3785  -13.1950 C   0  0  0  0  0  0  0  0  0  0  0  0
  -25.0559   -1.4352  -11.8501 C   0  0  0  0  0  0  0  0  0  0  0  0
  -26.3919   -1.6681  -11.4984 C   0  0  0  0  0  0  0  0  0  0  0  0
  -26.7973   -1.7520  -10.0562 C   0  0  0  0  0  0  0  0  0  0  0  0
  -27.3413   -1.8516  -12.5127 C   0  0  0  0  0  0  0  0  0  0  0  0
  -26.9671   -1.7607  -13.8561 C   0  0  0  0  0  0  0  0  0  0  0  0
  -25.6443   -1.4993  -14.1877 C   0  0  0  0  0  0  0  0  0  0  0  0
  -25.2842   -1.4482  -15.4804 F   0  0  0  0  0  0  0  0  0  0  0  0
  -17.3772    1.8524  -16.0171 O   0  0  0  0  0  0  0  0  0  0  0  0
  -15.5119   -0.4436  -13.8311 C   0  0  0  0  0  0  0  0  0  0  0  0
  -16.6011    0.1892  -14.4119 C   0  0  0  0  0  0  0  0  0  0  0  0
  -16.3718    1.2196  -15.3201 C   0  0  0  0  0  0  0  0  0  0  0  0
  -15.0782    1.6707  -15.5337 C   0  0  0  0  0  0  0  0  0  0  0  0
  -14.0525    1.0120  -14.8807 C   0  0  0  0  0  0  0  0  0  0  0  0
  -14.2370   -0.0440  -14.0561 N   0  0  0  0  0  0  0  0  0  0  0  0
  -16.1078   -3.7009  -12.1522 C   0  0  0  0  0  0  0  0  0  0  0  0
  -15.9537   -2.9652  -13.3146 C   0  0  0  0  0  0  0  0  0  0  0  0
  -15.7125   -1.6028  -12.9681 C   0  0  0  0  0  0  0  0  0  0  0  0
  -15.6825   -1.5625  -11.5878 C   0  0  0  0  0  0  0  0  0  0  0  0
  -15.9359   -2.8206  -11.1079 N   0  0  0  0  0  0  0  0  0  0  0  0
  -15.9989   -3.0788  -10.1296 H   0  0  0  0  0  0  0  0  0  0  0  0
  -16.4064   -5.0991  -11.9600 C   0  0  0  0  0  0  0  0  0  0  0  0
  -17.2907   -5.7078  -12.5487 O   0  0  0  0  0  0  0  0  0  0  0  0
  -14.4508   -6.3381  -11.5729 C   0  0  0  0  0  0  0  0  0  0  0  0
  -15.5656   -5.6302  -11.0312 O   0  0  0  0  0  0  0  0  0  0  0  0
 36 37  1  0  0  0
 37 34  1  0  0  0
 34 35  2  0  0  0
 34 28  1  0  0  0
 28 29  2  0  0  0
 28 32  1  0  0  0
 29 30  1  0  0  0
 30 22  1  0  0  0
 30 31  2  0  0  0
 22 23  1  0  0  0
 22 27  2  0  0  0
 23 24  2  0  0  0
 24 21  1  0  0  0
 24 25  1  0  0  0
 21  1  1  0  0  0
  1  2  1  0  0  0
  1  6  2  0  0  0
  2  3  2  0  0  0
  3  4  1  0  0  0
  4  5  2  0  0  0
  5  7  1  0  0  0
  5  6  1  0  0  0
  7  8  1  0  0  0
  7 11  1  0  0  0
  8  9  2  0  0  0
  8 10  1  0  0  0
 10 13  1  0  0  0
 10 12  1  0  0  0
 13 14  1  0  0  0
 13 19  2  0  0  0
 14 15  2  0  0  0
 15 16  1  0  0  0
 15 17  1  0  0  0
 17 18  2  0  0  0
 18 19  1  0  0  0
 19 20  1  0  0  0
 25 26  2  0  0  0
 26 27  1  0  0  0
 31 32  1  0  0  0
 32 33  1  0  0  0
M  END
> <minimizedAffinity>
-11.32854

$$$$
