CHEMBL572878


 36 40  0  0  0  0  0  0  0  0999 V2000
  -13.1123   -0.6159  -14.8490 C   0  0  0  0  0  0  0  0  0  0  0  0
  -12.9116   -1.3458  -16.0008 C   0  0  0  0  0  0  0  0  0  0  0  0
  -13.2477   -0.7704  -17.2108 C   0  0  0  0  0  0  0  0  0  0  0  0
  -13.7706    0.4693  -17.2474 N   0  0  0  0  0  0  0  0  0  0  0  0
  -13.9640    1.1038  -16.0792 C   0  0  0  0  0  0  0  0  0  0  0  0
  -13.6474    0.6105  -14.8801 N   0  0  0  0  0  0  0  0  0  0  0  0
  -13.1071   -1.4581  -18.3964 N   0  0  0  0  0  0  0  0  0  0  0  0
  -13.2116   -2.9235  -18.3989 C   0  0  0  0  0  0  0  0  0  0  0  0
  -12.2112   -3.5213  -19.4160 C   0  0  0  0  0  0  0  0  0  0  0  0
  -12.3667   -2.9444  -20.7742 N   0  0  0  0  0  0  0  0  0  0  0  0
  -11.3817   -3.5104  -21.6918 C   0  0  0  0  0  0  0  0  0  0  0  0
  -12.2114   -1.4768  -20.6910 C   0  0  0  0  0  0  0  0  0  0  0  0
  -13.2217   -0.8310  -19.7167 C   0  0  0  0  0  0  0  0  0  0  0  0
  -12.6697   -1.1656  -13.6312 N   0  0  0  0  0  0  0  0  0  0  0  0
  -11.6632   -1.1944  -13.5515 H   0  0  0  0  0  0  0  0  0  0  0  0
  -16.2919   -3.7235  -11.4506 C   0  0  0  0  0  0  0  0  0  0  0  0
  -15.0166   -3.1370  -11.9031 C   0  0  0  0  0  0  0  0  0  0  0  0
  -14.7432   -2.2103  -12.8795 C   0  0  0  0  0  0  0  0  0  0  0  0
  -13.3432   -2.0326  -12.8496 C   0  0  0  0  0  0  0  0  0  0  0  0
  -12.7743   -2.7748  -11.8978 N   0  0  0  0  0  0  0  0  0  0  0  0
  -13.8025   -3.4604  -11.3694 N   0  0  0  0  0  0  0  0  0  0  0  0
  -13.6006   -4.1279  -10.6314 H   0  0  0  0  0  0  0  0  0  0  0  0
  -14.7994    2.6765  -16.0935 S   0  0  0  0  0  0  0  0  0  0  0  0
  -16.4638    2.2217  -15.6487 C   0  0  0  0  0  0  0  0  0  0  0  0
  -17.5276    3.0804  -15.9146 C   0  0  0  0  0  0  0  0  0  0  0  0
  -18.8460    2.6942  -15.6393 C   0  0  0  0  0  0  0  0  0  0  0  0
  -19.1391    1.4389  -15.0982 C   0  0  0  0  0  0  0  0  0  0  0  0
  -18.0714    0.5716  -14.8362 C   0  0  0  0  0  0  0  0  0  0  0  0
  -16.7452    0.9601  -15.1118 C   0  0  0  0  0  0  0  0  0  0  0  0
  -20.4576    1.0132  -14.7850 N   0  0  0  0  0  0  0  0  0  0  0  0
  -21.4421    1.7791  -14.1877 C   0  0  0  0  0  0  0  0  0  0  0  0
  -21.3727    2.9791  -13.9375 O   0  0  0  0  0  0  0  0  0  0  0  0
  -20.6870    0.0516  -14.9983 H   0  0  0  0  0  0  0  0  0  0  0  0
  -22.7079    1.0978  -13.7768 C   0  0  0  0  0  0  0  0  0  0  0  0
  -22.7104   -0.0049  -12.7453 C   0  0  0  0  0  0  0  0  0  0  0  0
  -23.1328   -0.2927  -14.1599 C   0  0  0  0  0  0  0  0  0  0  0  0
 16 17  1  0  0  0
 17 18  2  0  0  0
 17 21  1  0  0  0
 18 19  1  0  0  0
 19 14  1  0  0  0
 19 20  2  0  0  0
 14  1  1  0  0  0
 14 15  1  0  0  0
  1  2  1  0  0  0
  1  6  2  0  0  0
  2  3  2  0  0  0
  3  7  1  0  0  0
  3  4  1  0  0  0
  7  8  1  0  0  0
  7 13  1  0  0  0
  8  9  1  0  0  0
  9 10  1  0  0  0
 10 11  1  0  0  0
 10 12  1  0  0  0
 12 13  1  0  0  0
  4  5  2  0  0  0
  5 23  1  0  0  0
  5  6  1  0  0  0
 23 24  1  0  0  0
 24 25  1  0  0  0
 24 29  2  0  0  0
 25 26  2  0  0  0
 26 27  1  0  0  0
 27 30  1  0  0  0
 27 28  2  0  0  0
 30 31  1  0  0  0
 30 33  1  0  0  0
 31 32  2  0  0  0
 31 34  1  0  0  0
 34 35  1  0  0  0
 34 36  1  0  0  0
 35 36  1  0  0  0
 28 29  1  0  0  0
 20 21  1  0  0  0
 21 22  1  0  0  0
M  END
> <minimizedAffinity>
-8.10995

$$$$
