CHEMBL3969096


 39 43  0  0  0  0  0  0  0  0999 V2000
  -14.3678    1.4834  -16.0642 N   0  0  0  0  0  0  0  0  0  0  0  0
  -13.7986    0.3633  -15.3274 C   0  0  0  0  0  0  0  0  0  0  0  0
  -12.9927   -0.4623  -16.1219 C   0  0  0  0  0  0  0  0  0  0  0  0
  -12.8208   -1.7913  -15.7665 C   0  0  0  0  0  0  0  0  0  0  0  0
  -13.2795   -2.3076  -14.5866 C   0  0  0  0  0  0  0  0  0  0  0  0
  -13.1540   -3.6352  -14.5205 N   0  0  0  0  0  0  0  0  0  0  0  0
  -13.4416   -4.2050  -13.3488 C   0  0  0  0  0  0  0  0  0  0  0  0
  -13.7651   -3.4670  -12.2307 C   0  0  0  0  0  0  0  0  0  0  0  0
  -13.9960   -2.1031  -12.3232 N   0  0  0  0  0  0  0  0  0  0  0  0
  -13.8103   -1.4799  -13.5734 C   0  0  0  0  0  0  0  0  0  0  0  0
  -14.1177   -0.1109  -14.0145 C   0  0  0  0  0  0  0  0  0  0  0  0
  -13.7172   -4.1910  -10.9574 C   0  0  0  0  0  0  0  0  0  0  0  0
  -14.7739   -4.8436  -10.2560 C   0  0  0  0  0  0  0  0  0  0  0  0
  -14.4429   -5.1711   -8.9999 N   0  0  0  0  0  0  0  0  0  0  0  0
  -13.1860   -4.7109   -8.8820 N   0  0  0  0  0  0  0  0  0  0  0  0
  -12.3479   -5.1383   -7.7855 C   0  0  0  0  0  0  0  0  0  0  0  0
  -12.7924   -3.9555   -9.9533 C   0  0  0  0  0  0  0  0  0  0  0  0
  -12.5509    4.6183  -15.1252 C   0  0  0  0  0  0  0  0  0  0  0  0
  -12.9691    5.4985  -16.1232 C   0  0  0  0  0  0  0  0  0  0  0  0
  -13.9162    5.0829  -17.0560 C   0  0  0  0  0  0  0  0  0  0  0  0
  -14.4321    3.7795  -16.9967 C   0  0  0  0  0  0  0  0  0  0  0  0
  -14.0408    2.8639  -16.0092 C   0  0  0  0  0  0  0  0  0  0  0  0
  -13.1145    3.3255  -15.0519 C   0  0  0  0  0  0  0  0  0  0  0  0
  -11.2197    3.8560  -13.2830 C   0  0  0  0  0  0  0  0  0  0  0  0
  -11.5751    4.8948  -14.1973 O   0  0  0  0  0  0  0  0  0  0  0  0
  -14.4033    5.8350  -18.0911 O   0  0  0  0  0  0  0  0  0  0  0  0
  -14.8625    5.1425  -19.2443 C   0  0  0  0  0  0  0  0  0  0  0  0
  -15.8409    1.1808  -16.2350 C   0  0  0  0  0  0  0  0  0  0  0  0
  -16.8804    2.0123  -15.4544 C   0  0  0  0  0  0  0  0  0  0  0  0
  -17.0808    1.7540  -14.2628 O   0  0  0  0  0  0  0  0  0  0  0  0
  -17.7058    2.8991  -16.1378 N   0  0  0  0  0  0  0  0  0  0  0  0
  -17.3072    3.3447  -16.9563 H   0  0  0  0  0  0  0  0  0  0  0  0
  -18.7412    3.6196  -15.3725 C   0  0  0  0  0  0  0  0  0  0  0  0
  -20.1651    2.9977  -15.4036 C   0  0  0  0  0  0  0  0  0  0  0  0
  -20.7049    2.6247  -14.0714 N   0  0  0  0  0  0  0  0  0  0  0  0
  -20.5765    1.1808  -13.7961 C   0  0  0  0  0  0  0  0  0  0  0  0
  -21.8360    0.5567  -14.3685 C   0  0  0  0  0  0  0  0  0  0  0  0
  -22.9006    1.5926  -14.0697 C   0  0  0  0  0  0  0  0  0  0  0  0
  -22.1403    2.9018  -13.8967 C   0  0  0  0  0  0  0  0  0  0  0  0
 24 25  1  0  0  0
 25 18  1  0  0  0
 18 19  1  0  0  0
 18 23  2  0  0  0
 19 20  2  0  0  0
 20 26  1  0  0  0
 20 21  1  0  0  0
 26 27  1  0  0  0
 21 22  2  0  0  0
 22  1  1  0  0  0
 22 23  1  0  0  0
  1 28  1  0  0  0
  1  2  1  0  0  0
 28 29  1  0  0  0
 29 30  2  0  0  0
 29 31  1  0  0  0
 31 33  1  0  0  0
 31 32  1  0  0  0
 33 34  1  0  0  0
 34 35  1  0  0  0
 35 36  1  0  0  0
 35 39  1  0  0  0
 36 37  1  0  0  0
 37 38  1  0  0  0
 38 39  1  0  0  0
  2  3  1  0  0  0
  2 11  2  0  0  0
  3  4  2  0  0  0
  4  5  1  0  0  0
  5  6  1  0  0  0
  5 10  2  0  0  0
  6  7  2  0  0  0
  7  8  1  0  0  0
  8 12  1  0  0  0
  8  9  2  0  0  0
 12 13  1  0  0  0
 12 17  2  0  0  0
 13 14  2  0  0  0
 14 15  1  0  0  0
 15 16  1  0  0  0
 15 17  1  0  0  0
  9 10  1  0  0  0
 10 11  1  0  0  0
M  END
> <minimizedAffinity>
-7.07191

$$$$
