CHEMBL3690484


 36 39  0  0  0  0  0  0  0  0999 V2000
  -29.5979   -2.5156   -5.4991 C   0  0  0  0  0  0  0  0  0  0  0  0
  -29.4477   -1.2099   -5.0892 C   0  0  0  0  0  0  0  0  0  0  0  0
  -28.6682   -0.4730   -5.9433 N   0  0  0  0  0  0  0  0  0  0  0  0
  -28.3376   -1.3194   -6.8996 C   0  0  0  0  0  0  0  0  0  0  0  0
  -27.5855   -1.1247   -8.0987 C   0  0  0  0  0  0  0  0  0  0  0  0
  -27.4092   -2.1415   -8.9740 C   0  0  0  0  0  0  0  0  0  0  0  0
  -27.9618   -3.4620   -8.6815 C   0  0  0  0  0  0  0  0  0  0  0  0
  -28.6979   -3.6313   -7.5813 C   0  0  0  0  0  0  0  0  0  0  0  0
  -28.8834   -2.5775   -6.6854 N   0  0  0  0  0  0  0  0  0  0  0  0
  -30.8333   -6.0251   -4.7254 C   0  0  0  0  0  0  0  0  0  0  0  0
  -31.5855   -5.7602   -3.5849 C   0  0  0  0  0  0  0  0  0  0  0  0
  -31.7687   -4.4530   -3.1259 C   0  0  0  0  0  0  0  0  0  0  0  0
  -31.1555   -3.3906   -3.7830 C   0  0  0  0  0  0  0  0  0  0  0  0
  -30.3304   -3.6316   -4.8828 C   0  0  0  0  0  0  0  0  0  0  0  0
  -30.1922   -4.9561   -5.3440 C   0  0  0  0  0  0  0  0  0  0  0  0
  -30.9992   -6.8931   -7.5448 O   0  0  0  0  0  0  0  0  0  0  0  0
  -30.7706   -7.6486   -6.6109 C   0  0  0  0  0  0  0  0  0  0  0  0
  -30.5684   -9.0045   -6.8168 N   0  0  0  0  0  0  0  0  0  0  0  0
  -30.6635   -7.3150   -5.2773 N   0  0  0  0  0  0  0  0  0  0  0  0
  -30.8686   -9.5932   -6.0590 H   0  0  0  0  0  0  0  0  0  0  0  0
  -30.3703   -8.0501   -4.6541 H   0  0  0  0  0  0  0  0  0  0  0  0
  -30.7786   -9.5558   -8.1601 C   0  0  0  0  0  0  0  0  0  0  0  0
  -29.4936   -9.7454   -8.9845 C   0  0  0  0  0  0  0  0  0  0  0  0
  -29.7542  -10.3252  -10.1777 F   0  0  0  0  0  0  0  0  0  0  0  0
  -28.8558   -8.5791   -9.2114 F   0  0  0  0  0  0  0  0  0  0  0  0
  -28.6289  -10.5633   -8.3337 F   0  0  0  0  0  0  0  0  0  0  0  0
  -26.7918   -1.8491  -10.2751 C   0  0  0  0  0  0  0  0  0  0  0  0
  -27.5727   -1.9091  -11.4239 C   0  0  0  0  0  0  0  0  0  0  0  0
  -26.9776   -1.6533  -12.6566 C   0  0  0  0  0  0  0  0  0  0  0  0
  -25.6156   -1.3552  -12.7151 C   0  0  0  0  0  0  0  0  0  0  0  0
  -24.9182   -1.3291  -11.5070 C   0  0  0  0  0  0  0  0  0  0  0  0
  -25.4718   -1.5687  -10.2939 N   0  0  0  0  0  0  0  0  0  0  0  0
  -24.9118   -1.0689  -14.0191 C   0  0  0  0  0  0  0  0  0  0  0  0
  -23.4353   -0.7013  -13.8657 C   0  0  0  0  0  0  0  0  0  0  0  0
  -23.2363    0.7021  -13.9766 O   0  0  0  0  0  0  0  0  0  0  0  0
  -23.3812    0.9385  -14.9102 H   0  0  0  0  0  0  0  0  0  0  0  0
 16 17  2  0  0  0
 17 18  1  0  0  0
 17 19  1  0  0  0
 18 22  1  0  0  0
 18 20  1  0  0  0
 22 23  1  0  0  0
 23 24  1  0  0  0
 23 25  1  0  0  0
 23 26  1  0  0  0
 19 10  1  0  0  0
 19 21  1  0  0  0
 10 11  1  0  0  0
 10 15  2  0  0  0
 11 12  2  0  0  0
 12 13  1  0  0  0
 13 14  2  0  0  0
 14  1  1  0  0  0
 14 15  1  0  0  0
  1  2  2  0  0  0
  1  9  1  0  0  0
  2  3  1  0  0  0
  3  4  2  0  0  0
  4  5  1  0  0  0
  4  9  1  0  0  0
  5  6  2  0  0  0
  6 27  1  0  0  0
  6  7  1  0  0  0
 27 28  1  0  0  0
 27 32  2  0  0  0
 28 29  2  0  0  0
 29 30  1  0  0  0
 30 33  1  0  0  0
 30 31  2  0  0  0
 33 34  1  0  0  0
 34 35  1  0  0  0
 35 36  1  0  0  0
 31 32  1  0  0  0
  7  8  2  0  0  0
  8  9  1  0  0  0
M  END
> <minimizedAffinity>
-10.30628

$$$$
