CHEMBL1614710


 33 36  0  0  0  0  0  0  0  0999 V2000
  -28.7731   -2.9515   -7.1055 C   0  0  0  0  0  0  0  0  0  0  0  0
  -28.5408   -1.6160   -6.0440 S   0  0  0  0  0  0  0  0  0  0  0  0
  -29.8375   -2.0884   -5.0466 C   0  0  0  0  0  0  0  0  0  0  0  0
  -30.4096   -3.2645   -5.4713 C   0  0  0  0  0  0  0  0  0  0  0  0
  -29.7700   -3.7961   -6.6306 C   0  0  0  0  0  0  0  0  0  0  0  0
  -27.5981   -4.1760   -8.7323 O   0  0  0  0  0  0  0  0  0  0  0  0
  -27.9874   -3.0799   -8.3378 C   0  0  0  0  0  0  0  0  0  0  0  0
  -27.7113   -1.8812   -8.9997 N   0  0  0  0  0  0  0  0  0  0  0  0
  -27.9426   -1.0354   -8.4935 H   0  0  0  0  0  0  0  0  0  0  0  0
  -27.0809   -1.7273  -10.2550 C   0  0  0  0  0  0  0  0  0  0  0  0
  -27.7789   -1.6835  -11.4624 C   0  0  0  0  0  0  0  0  0  0  0  0
  -27.1062   -1.5711  -12.6882 C   0  0  0  0  0  0  0  0  0  0  0  0
  -25.7216   -1.4535  -12.7213 C   0  0  0  0  0  0  0  0  0  0  0  0
  -25.0172   -1.4833  -11.5144 C   0  0  0  0  0  0  0  0  0  0  0  0
  -25.6890   -1.6020  -10.2888 C   0  0  0  0  0  0  0  0  0  0  0  0
  -24.9421   -1.3222  -13.8289 O   0  0  0  0  0  0  0  0  0  0  0  0
  -23.7745   -0.5149  -13.7834 C   0  0  0  0  0  0  0  0  0  0  0  0
  -22.6623   -1.1864  -13.4185 F   0  0  0  0  0  0  0  0  0  0  0  0
  -23.5588   -0.0183  -15.0234 F   0  0  0  0  0  0  0  0  0  0  0  0
  -23.9625    0.5243  -12.9425 F   0  0  0  0  0  0  0  0  0  0  0  0
  -30.0983   -4.9834   -7.2075 N   0  0  0  0  0  0  0  0  0  0  0  0
  -30.8508   -4.9966   -7.9010 H   0  0  0  0  0  0  0  0  0  0  0  0
  -29.7387   -6.2970   -6.6906 C   0  0  0  0  0  0  0  0  0  0  0  0
  -30.5401   -7.4685   -7.2443 C   0  0  0  0  0  0  0  0  0  0  0  0
  -31.8771   -7.6871   -6.8918 C   0  0  0  0  0  0  0  0  0  0  0  0
  -32.5393   -8.7832   -7.4153 C   0  0  0  0  0  0  0  0  0  0  0  0
  -31.9714   -9.6881   -8.2376 N   0  0  0  0  0  0  0  0  0  0  0  0
  -30.6790   -9.5070   -8.5719 C   0  0  0  0  0  0  0  0  0  0  0  0
  -30.0734  -10.4589   -9.3787 C   0  0  0  0  0  0  0  0  0  0  0  0
  -28.7393  -10.3625   -9.7725 C   0  0  0  0  0  0  0  0  0  0  0  0
  -27.9914   -9.2656   -9.3719 C   0  0  0  0  0  0  0  0  0  0  0  0
  -28.5766   -8.2926   -8.5651 C   0  0  0  0  0  0  0  0  0  0  0  0
  -29.9193   -8.4012   -8.1249 C   0  0  0  0  0  0  0  0  0  0  0  0
  6  7  2  0  0  0
  7  8  1  0  0  0
  7  1  1  0  0  0
  8 10  1  0  0  0
  8  9  1  0  0  0
 10 11  1  0  0  0
 10 15  2  0  0  0
 11 12  2  0  0  0
 12 13  1  0  0  0
 13 16  1  0  0  0
 13 14  2  0  0  0
 16 17  1  0  0  0
 17 18  1  0  0  0
 17 19  1  0  0  0
 17 20  1  0  0  0
 14 15  1  0  0  0
  1  2  1  0  0  0
  1  5  2  0  0  0
  2  3  1  0  0  0
  3  4  2  0  0  0
  4  5  1  0  0  0
  5 21  1  0  0  0
 21 23  1  0  0  0
 21 22  1  0  0  0
 23 24  1  0  0  0
 24 25  1  0  0  0
 24 33  2  0  0  0
 25 26  2  0  0  0
 26 27  1  0  0  0
 27 28  2  0  0  0
 28 29  1  0  0  0
 28 33  1  0  0  0
 29 30  2  0  0  0
 30 31  1  0  0  0
 31 32  2  0  0  0
 32 33  1  0  0  0
M  END
> <minimizedAffinity>
-9.28822

$$$$
