CHEMBL3221261


 32 34  0  0  0  0  0  0  0  0999 V2000
  -26.7575  -10.1444   -6.1004 C   0  0  0  0  0  0  0  0  0  0  0  0
  -27.3059  -10.0349   -7.3887 C   0  0  0  0  0  0  0  0  0  0  0  0
  -28.2703   -9.0606   -7.6760 C   0  0  0  0  0  0  0  0  0  0  0  0
  -28.9395   -9.0284   -9.3061 Cl  0  0  0  0  0  0  0  0  0  0  0  0
  -28.6918   -8.1574   -6.6707 C   0  0  0  0  0  0  0  0  0  0  0  0
  -28.0977   -8.2640   -5.3938 C   0  0  0  0  0  0  0  0  0  0  0  0
  -27.1672   -9.2530   -5.1043 C   0  0  0  0  0  0  0  0  0  0  0  0
  -26.4700   -9.3015   -3.4875 Cl  0  0  0  0  0  0  0  0  0  0  0  0
  -23.5643  -11.8433   -5.4539 N   0  0  0  0  0  0  0  0  0  0  0  0
  -24.4419  -10.8860   -5.8599 C   0  0  0  0  0  0  0  0  0  0  0  0
  -24.0307   -9.7902   -6.2151 O   0  0  0  0  0  0  0  0  0  0  0  0
  -25.7792  -11.1296   -5.7882 N   0  0  0  0  0  0  0  0  0  0  0  0
  -23.9232  -12.7698   -5.1757 H   0  0  0  0  0  0  0  0  0  0  0  0
  -26.0944  -12.0061   -5.3475 H   0  0  0  0  0  0  0  0  0  0  0  0
  -21.6869  -11.6181   -3.8906 C   0  0  0  0  0  0  0  0  0  0  0  0
  -22.1455  -11.5647   -5.3433 C   0  0  0  0  0  0  0  0  0  0  0  0
  -29.6708   -7.1490   -6.9706 N   0  0  0  0  0  0  0  0  0  0  0  0
  -30.0961   -7.1851   -7.9025 H   0  0  0  0  0  0  0  0  0  0  0  0
  -30.1165   -6.1362   -6.0534 C   0  0  0  0  0  0  0  0  0  0  0  0
  -30.9977   -6.4639   -5.0718 N   0  0  0  0  0  0  0  0  0  0  0  0
  -31.4579   -5.5726   -4.1667 C   0  0  0  0  0  0  0  0  0  0  0  0
  -31.0423   -4.2883   -4.2184 N   0  0  0  0  0  0  0  0  0  0  0  0
  -30.1788   -3.8748   -5.1804 C   0  0  0  0  0  0  0  0  0  0  0  0
  -29.7733   -2.5437   -5.1982 C   0  0  0  0  0  0  0  0  0  0  0  0
  -28.8787   -2.0608   -6.1816 C   0  0  0  0  0  0  0  0  0  0  0  0
  -28.4013   -2.9706   -7.1682 C   0  0  0  0  0  0  0  0  0  0  0  0
  -28.8086   -4.3076   -7.1270 C   0  0  0  0  0  0  0  0  0  0  0  0
  -29.6928   -4.7840   -6.1443 C   0  0  0  0  0  0  0  0  0  0  0  0
  -28.4861   -0.7561   -6.1720 O   0  0  0  0  0  0  0  0  0  0  0  0
  -27.6293   -0.1956   -5.2342 C   0  0  0  0  0  0  0  0  0  0  0  0
  -27.5525   -2.6673   -8.1895 O   0  0  0  0  0  0  0  0  0  0  0  0
  -27.7644   -1.9652   -9.3498 C   0  0  0  0  0  0  0  0  0  0  0  0
 15 16  1  0  0  0
 16  9  1  0  0  0
  9 10  1  0  0  0
  9 13  1  0  0  0
 10 11  2  0  0  0
 10 12  1  0  0  0
 12  1  1  0  0  0
 12 14  1  0  0  0
  1  2  1  0  0  0
  1  7  2  0  0  0
  2  3  2  0  0  0
  3  4  1  0  0  0
  3  5  1  0  0  0
  5 17  1  0  0  0
  5  6  2  0  0  0
 17 19  1  0  0  0
 17 18  1  0  0  0
 19 20  1  0  0  0
 19 28  2  0  0  0
 20 21  2  0  0  0
 21 22  1  0  0  0
 22 23  2  0  0  0
 23 24  1  0  0  0
 23 28  1  0  0  0
 24 25  2  0  0  0
 25 29  1  0  0  0
 25 26  1  0  0  0
 29 30  1  0  0  0
 26 31  1  0  0  0
 26 27  2  0  0  0
 31 32  1  0  0  0
 27 28  1  0  0  0
  6  7  1  0  0  0
  7  8  1  0  0  0
M  END
> <minimizedAffinity>
-7.87889

$$$$
