CHEMBL495961


 33 37  0  0  0  0  0  0  0  0999 V2000
  -28.2910   -9.6488   -6.5211 C   0  0  0  0  0  0  0  0  0  0  0  0
  -27.5729   -9.5641   -5.3164 C   0  0  0  0  0  0  0  0  0  0  0  0
  -27.4551   -8.3595   -4.6073 C   0  0  0  0  0  0  0  0  0  0  0  0
  -28.0727   -7.2408   -5.1689 C   0  0  0  0  0  0  0  0  0  0  0  0
  -28.1524   -5.9295   -4.7798 N   0  0  0  0  0  0  0  0  0  0  0  0
  -28.8818   -5.2318   -5.7192 C   0  0  0  0  0  0  0  0  0  0  0  0
  -29.2887   -6.0504   -6.6781 N   0  0  0  0  0  0  0  0  0  0  0  0
  -28.7820   -7.2822   -6.3588 C   0  0  0  0  0  0  0  0  0  0  0  0
  -28.8992   -8.4935   -7.0473 C   0  0  0  0  0  0  0  0  0  0  0  0
  -27.7116   -5.5147   -3.9671 H   0  0  0  0  0  0  0  0  0  0  0  0
  -29.0835   -3.8237   -5.5729 C   0  0  0  0  0  0  0  0  0  0  0  0
  -28.6342   -2.9789   -6.5394 C   0  0  0  0  0  0  0  0  0  0  0  0
  -28.0686   -3.3925   -7.7494 N   0  0  0  0  0  0  0  0  0  0  0  0
  -28.7137   -1.5108   -6.3077 C   0  0  0  0  0  0  0  0  0  0  0  0
  -28.2542   -0.5650   -7.2380 C   0  0  0  0  0  0  0  0  0  0  0  0
  -28.2792    0.8029   -6.9480 C   0  0  0  0  0  0  0  0  0  0  0  0
  -28.7883    1.2497   -5.7334 C   0  0  0  0  0  0  0  0  0  0  0  0
  -29.2848    0.3325   -4.8095 C   0  0  0  0  0  0  0  0  0  0  0  0
  -29.2410   -1.0336   -5.0991 C   0  0  0  0  0  0  0  0  0  0  0  0
  -29.7404   -1.9340   -4.1586 N   0  0  0  0  0  0  0  0  0  0  0  0
  -29.7263   -3.2875   -4.3309 C   0  0  0  0  0  0  0  0  0  0  0  0
  -30.2304   -4.0239   -3.4822 O   0  0  0  0  0  0  0  0  0  0  0  0
  -27.8671   -4.4034   -7.7235 H   0  0  0  0  0  0  0  0  0  0  0  0
  -27.2148   -2.8937   -7.9735 H   0  0  0  0  0  0  0  0  0  0  0  0
  -30.1572   -1.5995   -3.2995 H   0  0  0  0  0  0  0  0  0  0  0  0
  -28.4486  -10.9714   -7.2421 C   0  0  0  0  0  0  0  0  0  0  0  0
  -28.7666  -10.3455  -11.9676 C   0  0  0  0  0  0  0  0  0  0  0  0
  -27.8943  -10.8528  -10.9125 N   0  0  0  0  0  0  0  0  0  0  0  0
  -27.5287   -9.7798   -9.9713 C   0  0  0  0  0  0  0  0  0  0  0  0
  -26.6552  -10.3144   -8.8132 C   0  0  0  0  0  0  0  0  0  0  0  0
  -27.2788  -11.4026   -8.0260 N   0  0  0  0  0  0  0  0  0  0  0  0
  -27.6731  -12.4655   -8.9838 C   0  0  0  0  0  0  0  0  0  0  0  0
  -28.5192  -11.9775  -10.1933 C   0  0  0  0  0  0  0  0  0  0  0  0
 27 28  1  0  0  0
 28 29  1  0  0  0
 28 33  1  0  0  0
 29 30  1  0  0  0
 30 31  1  0  0  0
 31 26  1  0  0  0
 31 32  1  0  0  0
 26  1  1  0  0  0
  1  2  1  0  0  0
  1  9  2  0  0  0
  2  3  2  0  0  0
  3  4  1  0  0  0
  4  5  1  0  0  0
  4  8  2  0  0  0
  5  6  1  0  0  0
  5 10  1  0  0  0
  6 11  1  0  0  0
  6  7  2  0  0  0
 11 12  2  0  0  0
 11 21  1  0  0  0
 12 13  1  0  0  0
 12 14  1  0  0  0
 13 23  1  0  0  0
 13 24  1  0  0  0
 14 15  1  0  0  0
 14 19  2  0  0  0
 15 16  2  0  0  0
 16 17  1  0  0  0
 17 18  2  0  0  0
 18 19  1  0  0  0
 19 20  1  0  0  0
 20 21  1  0  0  0
 20 25  1  0  0  0
 21 22  2  0  0  0
  7  8  1  0  0  0
  8  9  1  0  0  0
 32 33  1  0  0  0
M  END
> <minimizedAffinity>
-8.35338

$$$$
