CHEMBL604483


 40 45  0  0  0  0  0  0  0  0999 V2000
  -18.5296    1.1289  -15.0119 C   0  0  0  0  0  0  0  0  0  0  0  0
  -19.7990    0.5951  -14.7958 C   0  0  0  0  0  0  0  0  0  0  0  0
  -20.8977    1.3825  -14.4170 C   0  0  0  0  0  0  0  0  0  0  0  0
  -22.1903    0.9010  -14.1881 C   0  0  0  0  0  0  0  0  0  0  0  0
  -23.2551    1.7053  -14.0029 N   0  0  0  0  0  0  0  0  0  0  0  0
  -22.9714    2.9909  -13.9071 C   0  0  0  0  0  0  0  0  0  0  0  0
  -21.7662    3.5701  -14.0136 N   0  0  0  0  0  0  0  0  0  0  0  0
  -20.7324    2.7608  -14.2823 C   0  0  0  0  0  0  0  0  0  0  0  0
  -19.4576    3.2979  -14.4493 C   0  0  0  0  0  0  0  0  0  0  0  0
  -18.3497    2.5152  -14.8150 C   0  0  0  0  0  0  0  0  0  0  0  0
  -16.4687   -0.0116  -14.4311 C   0  0  0  0  0  0  0  0  0  0  0  0
  -17.4665    0.3484  -15.3889 O   0  0  0  0  0  0  0  0  0  0  0  0
  -22.4212   -0.4770  -14.1757 O   0  0  0  0  0  0  0  0  0  0  0  0
  -23.3802   -0.9685  -13.3018 C   0  0  0  0  0  0  0  0  0  0  0  0
  -22.9976   -1.1329  -11.9689 C   0  0  0  0  0  0  0  0  0  0  0  0
  -23.9452   -1.4868  -10.9876 C   0  0  0  0  0  0  0  0  0  0  0  0
  -25.2954   -1.6864  -11.3214 C   0  0  0  0  0  0  0  0  0  0  0  0
  -25.6590   -1.5637  -12.6682 C   0  0  0  0  0  0  0  0  0  0  0  0
  -24.7205   -1.1942  -13.6366 C   0  0  0  0  0  0  0  0  0  0  0  0
  -25.1694   -1.0157  -14.8853 F   0  0  0  0  0  0  0  0  0  0  0  0
  -26.2983   -1.9231  -10.2628 C   0  0  0  0  0  0  0  0  0  0  0  0
  -26.7965   -3.1063   -9.9628 N   0  0  0  0  0  0  0  0  0  0  0  0
  -27.6520   -3.0094   -8.8730 C   0  0  0  0  0  0  0  0  0  0  0  0
  -28.3338   -4.0761   -8.2495 C   0  0  0  0  0  0  0  0  0  0  0  0
  -29.1734   -3.8242   -7.1565 C   0  0  0  0  0  0  0  0  0  0  0  0
  -29.3389   -2.5286   -6.6776 C   0  0  0  0  0  0  0  0  0  0  0  0
  -28.6702   -1.4563   -7.2742 C   0  0  0  0  0  0  0  0  0  0  0  0
  -27.8314   -1.7211   -8.3702 C   0  0  0  0  0  0  0  0  0  0  0  0
  -26.8883   -0.6246   -9.2958 S   0  0  0  0  0  0  0  0  0  0  0  0
  -17.2028    3.2721  -14.9518 O   0  0  0  0  0  0  0  0  0  0  0  0
  -16.9576    3.7867  -16.2535 C   0  0  0  0  0  0  0  0  0  0  0  0
  -15.6008    3.3358  -16.7938 C   0  0  0  0  0  0  0  0  0  0  0  0
  -14.5375    4.3047  -16.2536 C   0  0  0  0  0  0  0  0  0  0  0  0
  -13.3429    3.6434  -15.7287 N   0  0  0  0  0  0  0  0  0  0  0  0
  -12.6178    4.5339  -14.7979 C   0  0  0  0  0  0  0  0  0  0  0  0
  -11.3340    3.8520  -14.2769 C   0  0  0  0  0  0  0  0  0  0  0  0
  -11.5664    2.5676  -13.5845 N   0  0  0  0  0  0  0  0  0  0  0  0
  -12.1925    2.7701  -12.2803 C   0  0  0  0  0  0  0  0  0  0  0  0
  -12.3937    1.7026  -14.4499 C   0  0  0  0  0  0  0  0  0  0  0  0
  -13.6532    2.3744  -15.0437 C   0  0  0  0  0  0  0  0  0  0  0  0
 11 12  1  0  0  0
 12  1  1  0  0  0
  1  2  1  0  0  0
  1 10  2  0  0  0
  2  3  2  0  0  0
  3  4  1  0  0  0
  3  8  1  0  0  0
  4 13  1  0  0  0
  4  5  2  0  0  0
 13 14  1  0  0  0
 14 15  1  0  0  0
 14 19  2  0  0  0
 15 16  2  0  0  0
 16 17  1  0  0  0
 17 21  1  0  0  0
 17 18  2  0  0  0
 21 22  2  0  0  0
 21 29  1  0  0  0
 22 23  1  0  0  0
 23 24  1  0  0  0
 23 28  2  0  0  0
 24 25  2  0  0  0
 25 26  1  0  0  0
 26 27  2  0  0  0
 27 28  1  0  0  0
 28 29  1  0  0  0
 18 19  1  0  0  0
 19 20  1  0  0  0
  5  6  1  0  0  0
  6  7  2  0  0  0
  7  8  1  0  0  0
  8  9  2  0  0  0
  9 10  1  0  0  0
 10 30  1  0  0  0
 30 31  1  0  0  0
 31 32  1  0  0  0
 32 33  1  0  0  0
 33 34  1  0  0  0
 34 35  1  0  0  0
 34 40  1  0  0  0
 35 36  1  0  0  0
 36 37  1  0  0  0
 37 38  1  0  0  0
 37 39  1  0  0  0
 39 40  1  0  0  0
M  END
> <minimizedAffinity>
-7.98007

$$$$
