CHEMBL4570785


 29 32  0  0  0  0  0  0  0  0999 V2000
  -21.4541    1.5373  -14.3933 C   0  0  0  0  0  0  0  0  0  0  0  0
  -21.3865    2.9197  -14.1722 C   0  0  0  0  0  0  0  0  0  0  0  0
  -20.2198    3.6550  -14.3990 C   0  0  0  0  0  0  0  0  0  0  0  0
  -19.1235    2.9393  -14.8627 C   0  0  0  0  0  0  0  0  0  0  0  0
  -17.8617    3.3293  -15.2115 N   0  0  0  0  0  0  0  0  0  0  0  0
  -17.1555    2.2264  -15.6318 C   0  0  0  0  0  0  0  0  0  0  0  0
  -17.9169    1.1476  -15.5647 N   0  0  0  0  0  0  0  0  0  0  0  0
  -19.1336    1.5695  -15.0780 C   0  0  0  0  0  0  0  0  0  0  0  0
  -20.3071    0.8417  -14.8129 C   0  0  0  0  0  0  0  0  0  0  0  0
  -17.5164    4.2766  -15.1986 H   0  0  0  0  0  0  0  0  0  0  0  0
  -15.7736    2.3049  -16.1049 C   0  0  0  0  0  0  0  0  0  0  0  0
  -15.1493    1.2014  -16.7085 C   0  0  0  0  0  0  0  0  0  0  0  0
  -13.8240    1.2815  -17.1432 C   0  0  0  0  0  0  0  0  0  0  0  0
  -13.1124    2.4665  -16.9762 C   0  0  0  0  0  0  0  0  0  0  0  0
  -11.4802    2.5602  -17.5097 Cl  0  0  0  0  0  0  0  0  0  0  0  0
  -13.7169    3.5735  -16.3847 C   0  0  0  0  0  0  0  0  0  0  0  0
  -15.0462    3.4936  -15.9558 C   0  0  0  0  0  0  0  0  0  0  0  0
  -22.3018   -0.0666  -12.0875 O   0  0  0  0  0  0  0  0  0  0  0  0
  -22.9747    0.0568  -13.1064 C   0  0  0  0  0  0  0  0  0  0  0  0
  -22.6534    0.8016  -14.2280 N   0  0  0  0  0  0  0  0  0  0  0  0
  -23.3853    0.9829  -14.9041 H   0  0  0  0  0  0  0  0  0  0  0  0
  -24.3003   -0.6045  -13.1096 C   0  0  0  0  0  0  0  0  0  0  0  0
  -24.7213   -1.2166  -14.3012 C   0  0  0  0  0  0  0  0  0  0  0  0
  -25.9886   -1.7920  -14.3924 C   0  0  0  0  0  0  0  0  0  0  0  0
  -26.8425   -1.7436  -13.2923 C   0  0  0  0  0  0  0  0  0  0  0  0
  -28.4158   -2.4278  -13.4172 Cl  0  0  0  0  0  0  0  0  0  0  0  0
  -26.4210   -1.1291  -12.1112 C   0  0  0  0  0  0  0  0  0  0  0  0
  -27.2412   -1.0569  -11.0524 F   0  0  0  0  0  0  0  0  0  0  0  0
  -25.1538   -0.5590  -12.0061 C   0  0  0  0  0  0  0  0  0  0  0  0
 18 19  2  0  0  0
 19 20  1  0  0  0
 19 22  1  0  0  0
 20  1  1  0  0  0
 20 21  1  0  0  0
  1  2  1  0  0  0
  1  9  2  0  0  0
  2  3  2  0  0  0
  3  4  1  0  0  0
  4  5  1  0  0  0
  4  8  2  0  0  0
  5  6  1  0  0  0
  5 10  1  0  0  0
  6 11  1  0  0  0
  6  7  2  0  0  0
 11 12  1  0  0  0
 11 17  2  0  0  0
 12 13  2  0  0  0
 13 14  1  0  0  0
 14 15  1  0  0  0
 14 16  2  0  0  0
 16 17  1  0  0  0
  7  8  1  0  0  0
  8  9  1  0  0  0
 22 23  1  0  0  0
 22 29  2  0  0  0
 23 24  2  0  0  0
 24 25  1  0  0  0
 25 26  1  0  0  0
 25 27  2  0  0  0
 27 28  1  0  0  0
 27 29  1  0  0  0
M  END
> <minimizedAffinity>
-10.42950

$$$$
