CHEMBL3957473


 46 50  0  0  0  0  0  0  0  0999 V2000
  -18.2578    2.2329  -15.3548 C   0  0  0  0  0  0  0  0  0  0  0  0
  -19.1701    3.1738  -15.7278 C   0  0  0  0  0  0  0  0  0  0  0  0
  -20.4397    3.1304  -15.4025 C   0  0  0  0  0  0  0  0  0  0  0  0
  -20.9601    2.1046  -14.7566 C   0  0  0  0  0  0  0  0  0  0  0  0
  -22.1719    2.3885  -14.3935 N   0  0  0  0  0  0  0  0  0  0  0  0
  -22.9669    1.5562  -13.8202 C   0  0  0  0  0  0  0  0  0  0  0  0
  -22.6600    0.2039  -13.6952 C   0  0  0  0  0  0  0  0  0  0  0  0
  -21.2631   -0.1077  -13.9043 N   0  0  0  0  0  0  0  0  0  0  0  0
  -20.3431    0.8979  -14.4332 C   0  0  0  0  0  0  0  0  0  0  0  0
  -18.8400    0.9610  -14.7203 C   0  0  0  0  0  0  0  0  0  0  0  0
  -24.0935   -0.4805  -13.3303 C   0  0  0  0  0  0  0  0  0  0  0  0
  -25.2125   -1.0932  -13.9471 C   0  0  0  0  0  0  0  0  0  0  0  0
  -26.0897   -1.5500  -12.9830 N   0  0  0  0  0  0  0  0  0  0  0  0
  -25.6378   -1.2193  -11.7781 N   0  0  0  0  0  0  0  0  0  0  0  0
  -24.5041   -0.5691  -11.9567 C   0  0  0  0  0  0  0  0  0  0  0  0
  -26.1684   -1.5751  -10.4173 C   0  0  0  0  0  0  0  0  0  0  0  0
  -27.6984   -1.5452  -10.2775 C   0  0  0  0  0  0  0  0  0  0  0  0
  -28.1172   -1.4460   -8.8170 C   0  0  0  0  0  0  0  0  0  0  0  0
  -27.5735   -2.5214   -7.9502 N   0  0  0  0  0  0  0  0  0  0  0  0
  -28.2192   -3.8097   -8.2900 C   0  0  0  0  0  0  0  0  0  0  0  0
  -29.7012   -3.8562   -7.8227 C   0  0  0  0  0  0  0  0  0  0  0  0
  -29.8372   -3.5528   -6.3806 N   0  0  0  0  0  0  0  0  0  0  0  0
  -29.1717   -2.2679   -6.0580 C   0  0  0  0  0  0  0  0  0  0  0  0
  -27.6963   -2.2805   -6.4921 C   0  0  0  0  0  0  0  0  0  0  0  0
  -29.4008   -4.7027   -5.5530 C   0  0  0  0  0  0  0  0  0  0  0  0
  -30.4425   -5.8240   -5.4847 C   0  0  0  0  0  0  0  0  0  0  0  0
  -30.7735   -6.1160   -4.1549 O   0  0  0  0  0  0  0  0  0  0  0  0
  -30.0148   -6.6345   -3.7802 H   0  0  0  0  0  0  0  0  0  0  0  0
  -16.8770    2.8085  -15.5058 N   0  0  0  0  0  0  0  0  0  0  0  0
  -13.6389    0.8733  -14.8934 C   0  0  0  0  0  0  0  0  0  0  0  0
  -13.4570    0.3253  -16.1648 C   0  0  0  0  0  0  0  0  0  0  0  0
  -14.3368    0.6021  -17.1985 C   0  0  0  0  0  0  0  0  0  0  0  0
  -15.4048    1.4803  -16.9618 C   0  0  0  0  0  0  0  0  0  0  0  0
  -15.6298    2.0910  -15.6923 C   0  0  0  0  0  0  0  0  0  0  0  0
  -14.7251    1.7732  -14.6498 C   0  0  0  0  0  0  0  0  0  0  0  0
  -12.1490    1.1203  -12.9473 C   0  0  0  0  0  0  0  0  0  0  0  0
  -12.7737    0.4192  -13.9494 O   0  0  0  0  0  0  0  0  0  0  0  0
  -14.1617   -0.0403  -18.3857 O   0  0  0  0  0  0  0  0  0  0  0  0
  -13.8482    0.5658  -19.5877 C   0  0  0  0  0  0  0  0  0  0  0  0
  -16.8128    4.2670  -16.0165 C   0  0  0  0  0  0  0  0  0  0  0  0
  -15.4301    4.9924  -16.3894 C   0  0  0  0  0  0  0  0  0  0  0  0
  -15.2249    5.5317  -17.7523 N   0  0  0  0  0  0  0  0  0  0  0  0
  -15.2871    6.5742  -17.7435 H   0  0  0  0  0  0  0  0  0  0  0  0
  -14.0786    5.0570  -18.5660 C   0  0  0  0  0  0  0  0  0  0  0  0
  -13.2382    6.1854  -19.1901 C   0  0  0  0  0  0  0  0  0  0  0  0
  -13.1560    4.1889  -17.6957 C   0  0  0  0  0  0  0  0  0  0  0  0
 36 37  1  0  0  0
 37 30  1  0  0  0
 30 31  1  0  0  0
 30 35  2  0  0  0
 31 32  2  0  0  0
 32 38  1  0  0  0
 32 33  1  0  0  0
 38 39  1  0  0  0
 33 34  2  0  0  0
 34 29  1  0  0  0
 34 35  1  0  0  0
 29 40  1  0  0  0
 29  1  1  0  0  0
 40 41  1  0  0  0
 41 42  1  0  0  0
 42 44  1  0  0  0
 42 43  1  0  0  0
 44 45  1  0  0  0
 44 46  1  0  0  0
  1  2  1  0  0  0
  1 10  2  0  0  0
  2  3  2  0  0  0
  3  4  1  0  0  0
  4  5  1  0  0  0
  4  9  2  0  0  0
  5  6  2  0  0  0
  6  7  1  0  0  0
  7 11  1  0  0  0
  7  8  2  0  0  0
 11 12  1  0  0  0
 11 15  2  0  0  0
 12 13  2  0  0  0
 13 14  1  0  0  0
 14 16  1  0  0  0
 14 15  1  0  0  0
 16 17  1  0  0  0
 17 18  1  0  0  0
 18 19  1  0  0  0
 19 20  1  0  0  0
 19 24  1  0  0  0
 20 21  1  0  0  0
 21 22  1  0  0  0
 22 25  1  0  0  0
 22 23  1  0  0  0
 25 26  1  0  0  0
 26 27  1  0  0  0
 27 28  1  0  0  0
 23 24  1  0  0  0
  8  9  1  0  0  0
  9 10  1  0  0  0
M  END
> <minimizedAffinity>
-7.58268

$$$$
