CHEMBL3690381


 33 36  0  0  0  0  0  0  0  0999 V2000
  -24.9838   -1.2174  -12.3239 C   0  0  0  0  0  0  0  0  0  0  0  0
  -25.4780   -1.8087  -13.4867 C   0  0  0  0  0  0  0  0  0  0  0  0
  -24.9854   -1.4397  -14.7341 C   0  0  0  0  0  0  0  0  0  0  0  0
  -24.0257   -0.4388  -14.8360 C   0  0  0  0  0  0  0  0  0  0  0  0
  -23.6048    0.2735  -13.7069 C   0  0  0  0  0  0  0  0  0  0  0  0
  -24.0468   -0.1707  -12.4434 C   0  0  0  0  0  0  0  0  0  0  0  0
  -22.7532    1.4702  -13.8508 C   0  0  0  0  0  0  0  0  0  0  0  0
  -23.0319    2.8017  -13.5783 C   0  0  0  0  0  0  0  0  0  0  0  0
  -21.9726    3.6251  -13.8624 N   0  0  0  0  0  0  0  0  0  0  0  0
  -21.0281    2.8327  -14.3203 C   0  0  0  0  0  0  0  0  0  0  0  0
  -19.7085    3.1273  -14.7793 C   0  0  0  0  0  0  0  0  0  0  0  0
  -18.8993    2.1417  -15.2255 C   0  0  0  0  0  0  0  0  0  0  0  0
  -19.3772    0.7653  -15.2592 C   0  0  0  0  0  0  0  0  0  0  0  0
  -20.6277    0.4854  -14.8565 C   0  0  0  0  0  0  0  0  0  0  0  0
  -21.4525    1.5031  -14.3610 N   0  0  0  0  0  0  0  0  0  0  0  0
  -17.5818    2.4199  -15.7060 C   0  0  0  0  0  0  0  0  0  0  0  0
  -16.4694    2.6712  -16.0782 C   0  0  0  0  0  0  0  0  0  0  0  0
  -15.1315    2.9777  -16.4923 C   0  0  0  0  0  0  0  0  0  0  0  0
  -14.3925    2.2678  -17.4838 C   0  0  0  0  0  0  0  0  0  0  0  0
  -13.1273    2.7829  -17.6585 C   0  0  0  0  0  0  0  0  0  0  0  0
  -12.8312    4.1236  -16.6364 S   0  0  0  0  0  0  0  0  0  0  0  0
  -14.4004    4.0159  -15.9561 C   0  0  0  0  0  0  0  0  0  0  0  0
  -27.7100   -1.3851  -11.1431 O   0  0  0  0  0  0  0  0  0  0  0  0
  -26.6823   -1.6813  -10.5485 C   0  0  0  0  0  0  0  0  0  0  0  0
  -26.7299   -2.1526   -9.2527 N   0  0  0  0  0  0  0  0  0  0  0  0
  -25.3892   -1.6222  -11.0287 N   0  0  0  0  0  0  0  0  0  0  0  0
  -25.9089   -1.9917   -8.6877 H   0  0  0  0  0  0  0  0  0  0  0  0
  -24.6619   -1.9435  -10.4090 H   0  0  0  0  0  0  0  0  0  0  0  0
  -28.0203   -2.1393   -8.5470 C   0  0  0  0  0  0  0  0  0  0  0  0
  -28.4955   -3.5024   -8.0209 C   0  0  0  0  0  0  0  0  0  0  0  0
  -29.7858   -3.7495   -8.3461 F   0  0  0  0  0  0  0  0  0  0  0  0
  -27.7428   -4.5232   -8.4792 F   0  0  0  0  0  0  0  0  0  0  0  0
  -28.4251   -3.5243   -6.6659 F   0  0  0  0  0  0  0  0  0  0  0  0
 23 24  2  0  0  0
 24 25  1  0  0  0
 24 26  1  0  0  0
 25 29  1  0  0  0
 25 27  1  0  0  0
 29 30  1  0  0  0
 30 31  1  0  0  0
 30 32  1  0  0  0
 30 33  1  0  0  0
 26  1  1  0  0  0
 26 28  1  0  0  0
  1  2  1  0  0  0
  1  6  2  0  0  0
  2  3  2  0  0  0
  3  4  1  0  0  0
  4  5  2  0  0  0
  5  7  1  0  0  0
  5  6  1  0  0  0
  7  8  2  0  0  0
  7 15  1  0  0  0
  8  9  1  0  0  0
  9 10  2  0  0  0
 10 11  1  0  0  0
 10 15  1  0  0  0
 11 12  2  0  0  0
 12 16  1  0  0  0
 12 13  1  0  0  0
 16 17  3  0  0  0
 17 18  1  0  0  0
 18 19  1  0  0  0
 18 22  2  0  0  0
 19 20  2  0  0  0
 20 21  1  0  0  0
 21 22  1  0  0  0
 13 14  2  0  0  0
 14 15  1  0  0  0
M  END
> <minimizedAffinity>
-10.09295

$$$$
