CHEMBL473250


 41 46  0  0  0  0  0  0  0  0999 V2000
  -27.8052  -11.1808   -5.4846 C   0  0  0  0  0  0  0  0  0  0  0  0
  -27.7120   -9.8947   -4.9747 C   0  0  0  0  0  0  0  0  0  0  0  0
  -28.4309   -9.6086   -3.8325 C   0  0  0  0  0  0  0  0  0  0  0  0
  -29.1807  -10.5480   -3.2315 N   0  0  0  0  0  0  0  0  0  0  0  0
  -29.2515  -11.7491   -3.8205 C   0  0  0  0  0  0  0  0  0  0  0  0
  -28.6166  -12.1165   -4.9422 N   0  0  0  0  0  0  0  0  0  0  0  0
  -27.4888  -11.5538   -7.9565 C   0  0  0  0  0  0  0  0  0  0  0  0
  -26.5234  -11.8738   -8.7880 N   0  0  0  0  0  0  0  0  0  0  0  0
  -25.3981  -11.9866   -8.0361 C   0  0  0  0  0  0  0  0  0  0  0  0
  -24.0896  -12.2274   -8.4715 C   0  0  0  0  0  0  0  0  0  0  0  0
  -23.0663  -12.3051   -7.5265 C   0  0  0  0  0  0  0  0  0  0  0  0
  -23.3520  -12.1990   -6.1677 C   0  0  0  0  0  0  0  0  0  0  0  0
  -24.6589  -11.9800   -5.7125 C   0  0  0  0  0  0  0  0  0  0  0  0
  -25.6692  -11.8206   -6.6835 C   0  0  0  0  0  0  0  0  0  0  0  0
  -27.0342  -11.5353   -6.6337 N   0  0  0  0  0  0  0  0  0  0  0  0
  -28.7382  -11.1731   -8.2978 N   0  0  0  0  0  0  0  0  0  0  0  0
  -29.3140  -11.8387   -8.8140 H   0  0  0  0  0  0  0  0  0  0  0  0
  -27.6215   -8.4058   -9.1806 C   0  0  0  0  0  0  0  0  0  0  0  0
  -28.8880   -8.6542   -8.4044 C   0  0  0  0  0  0  0  0  0  0  0  0
  -29.5992   -7.4956   -8.0153 C   0  0  0  0  0  0  0  0  0  0  0  0
  -30.8199   -7.5740   -7.3547 C   0  0  0  0  0  0  0  0  0  0  0  0
  -31.3703   -8.8185   -7.0892 C   0  0  0  0  0  0  0  0  0  0  0  0
  -30.6671   -9.9780   -7.4327 C   0  0  0  0  0  0  0  0  0  0  0  0
  -31.4160  -11.4987   -7.0566 Cl  0  0  0  0  0  0  0  0  0  0  0  0
  -29.3946   -9.9350   -8.0616 C   0  0  0  0  0  0  0  0  0  0  0  0
  -28.3422   -8.3054   -3.2911 N   0  0  0  0  0  0  0  0  0  0  0  0
  -27.3989   -8.0810   -2.9942 H   0  0  0  0  0  0  0  0  0  0  0  0
  -28.8921   -7.1596   -3.8883 C   0  0  0  0  0  0  0  0  0  0  0  0
  -28.1320   -6.4139   -4.7794 C   0  0  0  0  0  0  0  0  0  0  0  0
  -28.6513   -5.2476   -5.3199 C   0  0  0  0  0  0  0  0  0  0  0  0
  -29.9431   -4.8409   -4.9941 C   0  0  0  0  0  0  0  0  0  0  0  0
  -30.6545   -5.6806   -4.1383 C   0  0  0  0  0  0  0  0  0  0  0  0
  -30.1681   -6.8308   -3.5985 N   0  0  0  0  0  0  0  0  0  0  0  0
  -30.5269   -3.5239   -5.4615 C   0  0  0  0  0  0  0  0  0  0  0  0
  -29.4977   -2.5828   -6.1241 C   0  0  0  0  0  0  0  0  0  0  0  0
  -28.7320   -1.7064   -5.2222 N   0  0  0  0  0  0  0  0  0  0  0  0
  -29.5068   -0.5805   -4.6658 C   0  0  0  0  0  0  0  0  0  0  0  0
  -29.8574    0.5027   -5.6979 C   0  0  0  0  0  0  0  0  0  0  0  0
  -28.6814    1.0154   -6.3375 O   0  0  0  0  0  0  0  0  0  0  0  0
  -27.9325   -0.0373   -6.9566 C   0  0  0  0  0  0  0  0  0  0  0  0
  -27.5623   -1.1361   -5.9420 C   0  0  0  0  0  0  0  0  0  0  0  0
 18 19  1  0  0  0
 19 20  1  0  0  0
 19 25  2  0  0  0
 20 21  2  0  0  0
 21 22  1  0  0  0
 22 23  2  0  0  0
 23 24  1  0  0  0
 23 25  1  0  0  0
 25 16  1  0  0  0
 16  7  1  0  0  0
 16 17  1  0  0  0
  7  8  2  0  0  0
  7 15  1  0  0  0
  8  9  1  0  0  0
  9 10  1  0  0  0
  9 14  2  0  0  0
 10 11  2  0  0  0
 11 12  1  0  0  0
 12 13  2  0  0  0
 13 14  1  0  0  0
 14 15  1  0  0  0
 15  1  1  0  0  0
  1  2  1  0  0  0
  1  6  2  0  0  0
  2  3  2  0  0  0
  3 26  1  0  0  0
  3  4  1  0  0  0
 26 28  1  0  0  0
 26 27  1  0  0  0
 28 29  1  0  0  0
 28 33  2  0  0  0
 29 30  2  0  0  0
 30 31  1  0  0  0
 31 34  1  0  0  0
 31 32  2  0  0  0
 34 35  1  0  0  0
 35 36  1  0  0  0
 36 37  1  0  0  0
 36 41  1  0  0  0
 37 38  1  0  0  0
 38 39  1  0  0  0
 39 40  1  0  0  0
 40 41  1  0  0  0
 32 33  1  0  0  0
  4  5  2  0  0  0
  5  6  1  0  0  0
M  END
> <minimizedAffinity>
-8.33920

$$$$
