CHEMBL3671524


 36 38  0  0  0  0  0  0  0  0999 V2000
  -29.5857   -5.3485   -7.1331 C   0  0  0  0  0  0  0  0  0  0  0  0
  -28.9684   -4.4545   -8.0149 C   0  0  0  0  0  0  0  0  0  0  0  0
  -28.5277   -3.1880   -7.5835 C   0  0  0  0  0  0  0  0  0  0  0  0
  -27.9812   -2.2049   -8.4204 C   0  0  0  0  0  0  0  0  0  0  0  0
  -27.5724   -1.0141   -7.9465 N   0  0  0  0  0  0  0  0  0  0  0  0
  -27.7462   -0.7996   -6.6382 C   0  0  0  0  0  0  0  0  0  0  0  0
  -28.2473   -1.6698   -5.7551 N   0  0  0  0  0  0  0  0  0  0  0  0
  -28.6307   -2.8553   -6.2328 C   0  0  0  0  0  0  0  0  0  0  0  0
  -29.1681   -3.7857   -5.3544 C   0  0  0  0  0  0  0  0  0  0  0  0
  -29.6917   -5.0155   -5.7728 C   0  0  0  0  0  0  0  0  0  0  0  0
  -29.4187   -7.6865   -7.6871 C   0  0  0  0  0  0  0  0  0  0  0  0
  -28.2819   -7.8092   -7.2364 O   0  0  0  0  0  0  0  0  0  0  0  0
  -30.1629   -6.5182   -7.6693 N   0  0  0  0  0  0  0  0  0  0  0  0
  -30.8985   -6.4013   -8.3551 H   0  0  0  0  0  0  0  0  0  0  0  0
  -29.3752   -9.5807   -9.2230 C   0  0  0  0  0  0  0  0  0  0  0  0
  -30.0853   -8.8128   -8.3843 C   0  0  0  0  0  0  0  0  0  0  0  0
  -27.8756   -2.4602   -9.8026 N   0  0  0  0  0  0  0  0  0  0  0  0
  -28.7712   -2.7267  -10.2048 H   0  0  0  0  0  0  0  0  0  0  0  0
  -26.9876   -1.8864  -10.7311 C   0  0  0  0  0  0  0  0  0  0  0  0
  -25.6901   -1.5030  -10.3703 C   0  0  0  0  0  0  0  0  0  0  0  0
  -24.7589   -1.1261  -11.3432 C   0  0  0  0  0  0  0  0  0  0  0  0
  -25.1248   -1.1231  -12.6867 C   0  0  0  0  0  0  0  0  0  0  0  0
  -23.8293   -0.7308  -14.0055 Br  0  0  0  0  0  0  0  0  0  0  0  0
  -26.4224   -1.4494  -13.0673 C   0  0  0  0  0  0  0  0  0  0  0  0
  -27.3347   -1.8323  -12.0891 C   0  0  0  0  0  0  0  0  0  0  0  0
  -28.5749   -2.1852  -12.4653 F   0  0  0  0  0  0  0  0  0  0  0  0
  -30.3935   -5.8652   -4.9352 O   0  0  0  0  0  0  0  0  0  0  0  0
  -29.6302   -6.3071   -3.7939 C   0  0  0  0  0  0  0  0  0  0  0  0
  -29.1655   -7.7585   -3.9181 C   0  0  0  0  0  0  0  0  0  0  0  0
  -27.7127   -7.8481   -4.0729 N   0  0  0  0  0  0  0  0  0  0  0  0
  -27.0322   -9.0178   -3.8590 C   0  0  0  0  0  0  0  0  0  0  0  0
  -27.5945  -10.0585   -3.5238 O   0  0  0  0  0  0  0  0  0  0  0  0
  -27.2434   -7.0993   -4.5651 H   0  0  0  0  0  0  0  0  0  0  0  0
  -25.5352   -8.9564   -4.1256 C   0  0  0  0  0  0  0  0  0  0  0  0
  -25.0029  -10.1441   -4.9225 C   0  0  0  0  0  0  0  0  0  0  0  0
  -23.7322   -9.8141   -5.6945 C   0  0  0  0  0  0  0  0  0  0  0  0
 15 16  2  0  0  0
 16 11  1  0  0  0
 11 12  2  0  0  0
 11 13  1  0  0  0
 13  1  1  0  0  0
 13 14  1  0  0  0
  1  2  1  0  0  0
  1 10  2  0  0  0
  2  3  2  0  0  0
  3  4  1  0  0  0
  3  8  1  0  0  0
  4 17  1  0  0  0
  4  5  2  0  0  0
 17 19  1  0  0  0
 17 18  1  0  0  0
 19 20  1  0  0  0
 19 25  2  0  0  0
 20 21  2  0  0  0
 21 22  1  0  0  0
 22 23  1  0  0  0
 22 24  2  0  0  0
 24 25  1  0  0  0
 25 26  1  0  0  0
  5  6  1  0  0  0
  6  7  2  0  0  0
  7  8  1  0  0  0
  8  9  2  0  0  0
  9 10  1  0  0  0
 10 27  1  0  0  0
 27 28  1  0  0  0
 28 29  1  0  0  0
 29 30  1  0  0  0
 30 31  1  0  0  0
 30 33  1  0  0  0
 31 32  2  0  0  0
 31 34  1  0  0  0
 34 35  1  0  0  0
 35 36  1  0  0  0
M  END
> <minimizedAffinity>
-8.51382

$$$$
