CHEMBL1976090


 19 21  0  0  0  0  0  0  0  0999 V2000
  -31.2484   -6.2500   -4.2708 N   0  0  0  0  0  0  0  0  0  0  0  0
  -30.5181   -6.0063   -5.4114 C   0  0  0  0  0  0  0  0  0  0  0  0
  -30.3361   -7.0267   -6.2693 N   0  0  0  0  0  0  0  0  0  0  0  0
  -29.5998   -6.8135   -7.3680 C   0  0  0  0  0  0  0  0  0  0  0  0
  -29.0066   -5.6782   -7.7428 N   0  0  0  0  0  0  0  0  0  0  0  0
  -29.1988   -4.6371   -6.8880 C   0  0  0  0  0  0  0  0  0  0  0  0
  -29.9488   -4.7698   -5.7241 C   0  0  0  0  0  0  0  0  0  0  0  0
  -30.0102   -3.2947   -4.8482 S   0  0  0  0  0  0  0  0  0  0  0  0
  -29.0435   -2.5011   -5.9965 C   0  0  0  0  0  0  0  0  0  0  0  0
  -28.7228   -1.2078   -5.8205 N   0  0  0  0  0  0  0  0  0  0  0  0
  -27.9562   -0.7401   -6.8165 C   0  0  0  0  0  0  0  0  0  0  0  0
  -27.5236   -1.4069   -7.8970 N   0  0  0  0  0  0  0  0  0  0  0  0
  -27.8840   -2.6983   -8.0426 C   0  0  0  0  0  0  0  0  0  0  0  0
  -27.4603   -3.3369   -9.1878 N   0  0  0  0  0  0  0  0  0  0  0  0
  -28.6720   -3.3097   -7.0553 C   0  0  0  0  0  0  0  0  0  0  0  0
  -31.7350   -7.1348   -4.2324 H   0  0  0  0  0  0  0  0  0  0  0  0
  -31.5509   -5.4809   -3.6922 H   0  0  0  0  0  0  0  0  0  0  0  0
  -26.7381   -2.8602   -9.7122 H   0  0  0  0  0  0  0  0  0  0  0  0
  -27.5292   -4.3466   -9.2261 H   0  0  0  0  0  0  0  0  0  0  0  0
  1  2  1  0  0  0
  1 16  1  0  0  0
  1 17  1  0  0  0
  2  3  1  0  0  0
  2  7  2  0  0  0
  3  4  2  0  0  0
  4  5  1  0  0  0
  5  6  2  0  0  0
  6  7  1  0  0  0
  6 15  1  0  0  0
  7  8  1  0  0  0
  8  9  1  0  0  0
  9 10  1  0  0  0
  9 15  2  0  0  0
 10 11  2  0  0  0
 11 12  1  0  0  0
 12 13  2  0  0  0
 13 14  1  0  0  0
 13 15  1  0  0  0
 14 18  1  0  0  0
 14 19  1  0  0  0
M  END
> <minimizedAffinity>
-6.79331

$$$$
