CHEMBL244098


 41 44  0  0  0  0  0  0  0  0999 V2000
  -14.3816   -4.3414  -11.4289 C   0  0  0  0  0  0  0  0  0  0  0  0
  -13.3247   -3.6362  -12.0023 C   0  0  0  0  0  0  0  0  0  0  0  0
  -13.5599   -2.6753  -12.9889 C   0  0  0  0  0  0  0  0  0  0  0  0
  -14.8510   -2.4096  -13.4545 C   0  0  0  0  0  0  0  0  0  0  0  0
  -15.9113   -3.1357  -12.9006 C   0  0  0  0  0  0  0  0  0  0  0  0
  -15.6796   -4.0957  -11.8955 C   0  0  0  0  0  0  0  0  0  0  0  0
  -15.1263   -1.4350  -14.4497 N   0  0  0  0  0  0  0  0  0  0  0  0
  -15.8373   -0.2646  -14.2586 C   0  0  0  0  0  0  0  0  0  0  0  0
  -16.2474    0.1442  -13.1742 O   0  0  0  0  0  0  0  0  0  0  0  0
  -16.0881    0.4114  -15.4441 N   0  0  0  0  0  0  0  0  0  0  0  0
  -14.6786   -1.5520  -15.3480 H   0  0  0  0  0  0  0  0  0  0  0  0
  -16.3051   -0.1923  -16.2286 H   0  0  0  0  0  0  0  0  0  0  0  0
  -16.8365    1.6209  -15.4022 C   0  0  0  0  0  0  0  0  0  0  0  0
  -18.2089    1.6212  -15.1168 C   0  0  0  0  0  0  0  0  0  0  0  0
  -18.9590    2.8071  -15.1836 C   0  0  0  0  0  0  0  0  0  0  0  0
  -18.3118    3.9983  -15.5532 C   0  0  0  0  0  0  0  0  0  0  0  0
  -16.9385    4.0078  -15.8124 C   0  0  0  0  0  0  0  0  0  0  0  0
  -16.2077    2.8269  -15.7116 C   0  0  0  0  0  0  0  0  0  0  0  0
  -14.8955    2.8411  -15.9911 F   0  0  0  0  0  0  0  0  0  0  0  0
  -20.4377    2.8084  -14.8744 C   0  0  0  0  0  0  0  0  0  0  0  0
  -20.7701    3.5319  -13.7699 F   0  0  0  0  0  0  0  0  0  0  0  0
  -21.1723    3.3344  -15.8949 F   0  0  0  0  0  0  0  0  0  0  0  0
  -20.9323    1.5569  -14.6682 F   0  0  0  0  0  0  0  0  0  0  0  0
  -13.9987   -5.6637  -10.2628 S   0  0  0  0  0  0  0  0  0  0  0  0
  -12.7087   -5.2273   -9.4760 O   0  0  0  0  0  0  0  0  0  0  0  0
  -13.4017   -9.3558  -15.3148 C   0  0  0  0  0  0  0  0  0  0  0  0
  -12.4530   -9.6438  -14.4533 N   0  0  0  0  0  0  0  0  0  0  0  0
  -12.6459   -8.8188  -13.3791 C   0  0  0  0  0  0  0  0  0  0  0  0
  -11.9169   -8.7042  -12.1877 C   0  0  0  0  0  0  0  0  0  0  0  0
  -12.3289   -7.7666  -11.2237 C   0  0  0  0  0  0  0  0  0  0  0  0
  -13.4643   -6.9664  -11.4233 C   0  0  0  0  0  0  0  0  0  0  0  0
  -14.1821   -7.0668  -12.6355 C   0  0  0  0  0  0  0  0  0  0  0  0
  -13.7450   -7.9987  -13.5811 C   0  0  0  0  0  0  0  0  0  0  0  0
  -14.1927   -8.3404  -14.8334 N   0  0  0  0  0  0  0  0  0  0  0  0
  -14.9811   -7.9296  -15.3083 H   0  0  0  0  0  0  0  0  0  0  0  0
  -13.7205   -9.2053  -17.6832 C   0  0  0  0  0  0  0  0  0  0  0  0
  -13.5924   -7.9989  -17.8328 O   0  0  0  0  0  0  0  0  0  0  0  0
  -13.6408   -9.9359  -16.5344 N   0  0  0  0  0  0  0  0  0  0  0  0
  -13.7398  -10.9351  -16.6285 H   0  0  0  0  0  0  0  0  0  0  0  0
  -14.3903  -11.3583  -18.2924 C   0  0  0  0  0  0  0  0  0  0  0  0
  -13.9603  -10.0611  -18.7178 O   0  0  0  0  0  0  0  0  0  0  0  0
 40 41  1  0  0  0
 41 36  1  0  0  0
 36 37  2  0  0  0
 36 38  1  0  0  0
 38 26  1  0  0  0
 38 39  1  0  0  0
 26 27  2  0  0  0
 26 34  1  0  0  0
 27 28  1  0  0  0
 28 29  1  0  0  0
 28 33  2  0  0  0
 29 30  2  0  0  0
 30 31  1  0  0  0
 31 24  1  0  0  0
 31 32  2  0  0  0
 24 25  1  0  0  0
 24  1  1  0  0  0
  1  2  1  0  0  0
  1  6  2  0  0  0
  2  3  2  0  0  0
  3  4  1  0  0  0
  4  7  1  0  0  0
  4  5  2  0  0  0
  7  8  1  0  0  0
  7 11  1  0  0  0
  8  9  2  0  0  0
  8 10  1  0  0  0
 10 13  1  0  0  0
 10 12  1  0  0  0
 13 14  1  0  0  0
 13 18  2  0  0  0
 14 15  2  0  0  0
 15 20  1  0  0  0
 15 16  1  0  0  0
 20 21  1  0  0  0
 20 22  1  0  0  0
 20 23  1  0  0  0
 16 17  2  0  0  0
 17 18  1  0  0  0
 18 19  1  0  0  0
  5  6  1  0  0  0
 32 33  1  0  0  0
 33 34  1  0  0  0
 34 35  1  0  0  0
M  CHG 1  24   1
M  CHG 1  25  -1
M  END
> <minimizedAffinity>
-9.54695

$$$$
