CHEMBL2063331


 42 46  0  0  0  0  0  0  0  0999 V2000
  -23.9200   -0.2963  -13.1520 C   0  0  0  0  0  0  0  0  0  0  0  0
  -24.1036   -0.5501  -11.7707 C   0  0  0  0  0  0  0  0  0  0  0  0
  -25.1639   -1.4173  -11.6638 C   0  0  0  0  0  0  0  0  0  0  0  0
  -25.5638   -1.6287  -12.9575 N   0  0  0  0  0  0  0  0  0  0  0  0
  -24.8488   -0.9455  -13.8717 N   0  0  0  0  0  0  0  0  0  0  0  0
  -26.3102   -2.2231  -13.2991 H   0  0  0  0  0  0  0  0  0  0  0  0
  -20.7996    2.1252  -14.8277 C   0  0  0  0  0  0  0  0  0  0  0  0
  -20.7279    0.7299  -14.8798 C   0  0  0  0  0  0  0  0  0  0  0  0
  -21.7523   -0.0504  -14.3369 C   0  0  0  0  0  0  0  0  0  0  0  0
  -22.8752    0.5443  -13.7383 C   0  0  0  0  0  0  0  0  0  0  0  0
  -22.9548    1.9391  -13.6993 C   0  0  0  0  0  0  0  0  0  0  0  0
  -21.9271    2.7215  -14.2417 C   0  0  0  0  0  0  0  0  0  0  0  0
  -19.6918    2.9720  -15.4010 C   0  0  0  0  0  0  0  0  0  0  0  0
  -17.2408    3.0271  -15.4844 C   0  0  0  0  0  0  0  0  0  0  0  0
  -17.1618    4.1633  -15.9333 O   0  0  0  0  0  0  0  0  0  0  0  0
  -18.4029    2.3631  -15.2365 N   0  0  0  0  0  0  0  0  0  0  0  0
  -18.3156    1.4136  -14.9003 H   0  0  0  0  0  0  0  0  0  0  0  0
  -16.1889    2.2430  -15.1497 O   0  0  0  0  0  0  0  0  0  0  0  0
  -16.4340    0.8272  -15.2401 C   0  0  0  0  0  0  0  0  0  0  0  0
  -15.4246   -2.6215  -11.6106 C   0  0  0  0  0  0  0  0  0  0  0  0
  -15.7116   -1.4600  -12.4693 C   0  0  0  0  0  0  0  0  0  0  0  0
  -15.9420   -1.3025  -13.8116 C   0  0  0  0  0  0  0  0  0  0  0  0
  -16.1376    0.0891  -13.9767 C   0  0  0  0  0  0  0  0  0  0  0  0
  -16.0407    0.7322  -12.8048 N   0  0  0  0  0  0  0  0  0  0  0  0
  -15.7724   -0.2461  -11.8600 O   0  0  0  0  0  0  0  0  0  0  0  0
  -25.7163   -1.9731  -10.5090 N   0  0  0  0  0  0  0  0  0  0  0  0
  -27.0791   -1.7138  -10.1180 C   0  0  0  0  0  0  0  0  0  0  0  0
  -27.8183   -1.0285  -10.8087 O   0  0  0  0  0  0  0  0  0  0  0  0
  -25.1480   -2.6013   -9.9588 H   0  0  0  0  0  0  0  0  0  0  0  0
  -27.5941   -2.3089   -8.8683 C   0  0  0  0  0  0  0  0  0  0  0  0
  -27.8551   -1.5659   -7.7215 C   0  0  0  0  0  0  0  0  0  0  0  0
  -28.4318   -2.2021   -6.6155 C   0  0  0  0  0  0  0  0  0  0  0  0
  -28.7615   -3.5705   -6.6169 C   0  0  0  0  0  0  0  0  0  0  0  0
  -28.4835   -4.2909   -7.7811 C   0  0  0  0  0  0  0  0  0  0  0  0
  -27.9068   -3.6735   -8.8925 C   0  0  0  0  0  0  0  0  0  0  0  0
  -29.3994   -4.1323   -5.5341 N   0  0  0  0  0  0  0  0  0  0  0  0
  -29.6847   -5.5748   -5.4296 C   0  0  0  0  0  0  0  0  0  0  0  0
  -31.0473   -5.7716   -4.7169 C   0  0  0  0  0  0  0  0  0  0  0  0
  -31.0990   -5.1059   -3.3944 N   0  0  0  0  0  0  0  0  0  0  0  0
  -32.4098   -5.2821   -2.7758 C   0  0  0  0  0  0  0  0  0  0  0  0
  -30.7913   -3.6675   -3.5580 C   0  0  0  0  0  0  0  0  0  0  0  0
  -29.4221   -3.4398   -4.2335 C   0  0  0  0  0  0  0  0  0  0  0  0
 20 21  1  0  0  0
 21 22  2  0  0  0
 21 25  1  0  0  0
 22 23  1  0  0  0
 23 19  1  0  0  0
 23 24  2  0  0  0
 19 18  1  0  0  0
 18 14  1  0  0  0
 14 15  2  0  0  0
 14 16  1  0  0  0
 16 13  1  0  0  0
 16 17  1  0  0  0
 13  7  1  0  0  0
  7  8  1  0  0  0
  7 12  2  0  0  0
  8  9  2  0  0  0
  9 10  1  0  0  0
 10  1  1  0  0  0
 10 11  2  0  0  0
  1  2  1  0  0  0
  1  5  2  0  0  0
  2  3  2  0  0  0
  3 26  1  0  0  0
  3  4  1  0  0  0
 26 27  1  0  0  0
 26 29  1  0  0  0
 27 28  2  0  0  0
 27 30  1  0  0  0
 30 31  1  0  0  0
 30 35  2  0  0  0
 31 32  2  0  0  0
 32 33  1  0  0  0
 33 36  1  0  0  0
 33 34  2  0  0  0
 36 37  1  0  0  0
 36 42  1  0  0  0
 37 38  1  0  0  0
 38 39  1  0  0  0
 39 40  1  0  0  0
 39 41  1  0  0  0
 41 42  1  0  0  0
 34 35  1  0  0  0
  4  5  1  0  0  0
  4  6  1  0  0  0
 11 12  1  0  0  0
 24 25  1  0  0  0
M  END
> <minimizedAffinity>
-11.38740

$$$$
