CHEMBL2408610


 34 39  0  0  0  0  0  0  0  0999 V2000
  -29.4385   -1.6805   -4.1027 N   0  0  0  0  0  0  0  0  0  0  0  0
  -28.9617   -1.7690   -5.3984 C   0  0  0  0  0  0  0  0  0  0  0  0
  -28.3696   -0.6753   -5.9307 N   0  0  0  0  0  0  0  0  0  0  0  0
  -27.9237   -0.7143   -7.2118 C   0  0  0  0  0  0  0  0  0  0  0  0
  -28.0097   -1.8150   -8.0626 C   0  0  0  0  0  0  0  0  0  0  0  0
  -28.5875   -2.9692   -7.5127 C   0  0  0  0  0  0  0  0  0  0  0  0
  -28.8841   -4.2846   -7.9616 C   0  0  0  0  0  0  0  0  0  0  0  0
  -29.4333   -4.9655   -6.8982 C   0  0  0  0  0  0  0  0  0  0  0  0
  -29.5637   -4.1254   -5.8312 O   0  0  0  0  0  0  0  0  0  0  0  0
  -29.0430   -2.9146   -6.1981 C   0  0  0  0  0  0  0  0  0  0  0  0
  -29.0316   -0.8975   -3.6053 H   0  0  0  0  0  0  0  0  0  0  0  0
  -29.5262   -2.5586   -3.6104 H   0  0  0  0  0  0  0  0  0  0  0  0
  -29.8471   -6.3473   -6.7404 C   0  0  0  0  0  0  0  0  0  0  0  0
  -30.8589   -6.8980   -7.5535 C   0  0  0  0  0  0  0  0  0  0  0  0
  -31.1747   -8.2520   -7.5007 C   0  0  0  0  0  0  0  0  0  0  0  0
  -30.4829   -9.1002   -6.6349 C   0  0  0  0  0  0  0  0  0  0  0  0
  -29.4733   -8.5820   -5.7965 C   0  0  0  0  0  0  0  0  0  0  0  0
  -28.7080   -9.3194   -4.9000 N   0  0  0  0  0  0  0  0  0  0  0  0
  -27.8264   -8.5686   -4.2677 N   0  0  0  0  0  0  0  0  0  0  0  0
  -27.8837   -6.9707   -4.7308 S   0  0  0  0  0  0  0  0  0  0  0  0
  -29.1732   -7.2139   -5.8584 C   0  0  0  0  0  0  0  0  0  0  0  0
  -27.6011   -1.7873   -9.4463 C   0  0  0  0  0  0  0  0  0  0  0  0
  -28.3129   -1.5384  -10.6411 C   0  0  0  0  0  0  0  0  0  0  0  0
  -27.5219   -1.4985  -11.7151 N   0  0  0  0  0  0  0  0  0  0  0  0
  -26.2952   -1.7348  -11.2142 N   0  0  0  0  0  0  0  0  0  0  0  0
  -26.2990   -1.9446   -9.8648 C   0  0  0  0  0  0  0  0  0  0  0  0
  -25.1237   -1.7030  -12.0854 C   0  0  0  0  0  0  0  0  0  0  0  0
  -25.4632   -1.0831  -13.4488 C   0  0  0  0  0  0  0  0  0  0  0  0
  -24.2331   -0.9507  -14.3401 C   0  0  0  0  0  0  0  0  0  0  0  0
  -23.1157   -0.1865  -13.6321 C   0  0  0  0  0  0  0  0  0  0  0  0
  -21.9783   -0.1000  -14.4800 O   0  0  0  0  0  0  0  0  0  0  0  0
  -22.7351   -0.8703  -12.3210 C   0  0  0  0  0  0  0  0  0  0  0  0
  -23.9412   -1.0003  -11.3973 C   0  0  0  0  0  0  0  0  0  0  0  0
  -21.5976   -0.9888  -14.5802 H   0  0  0  0  0  0  0  0  0  0  0  0
  1  2  1  0  0  0
  1 11  1  0  0  0
  1 12  1  0  0  0
  2  3  1  0  0  0
  2 10  2  0  0  0
  3  4  2  0  0  0
  4  5  1  0  0  0
  5 22  1  0  0  0
  5  6  2  0  0  0
 22 23  1  0  0  0
 22 26  2  0  0  0
 23 24  2  0  0  0
 24 25  1  0  0  0
 25 26  1  0  0  0
 27 28  1  0  0  0
 27 33  1  0  0  0
 27 25  1  0  0  0
 28 29  1  0  0  0
 29 30  1  0  0  0
 30 31  1  0  0  0
 30 32  1  0  0  0
 31 34  1  0  0  0
 32 33  1  0  0  0
  6  7  1  0  0  0
  6 10  1  0  0  0
  7  8  2  0  0  0
  8 13  1  0  0  0
  8  9  1  0  0  0
 13 14  1  0  0  0
 13 21  2  0  0  0
 14 15  2  0  0  0
 15 16  1  0  0  0
 16 17  2  0  0  0
 17 18  1  0  0  0
 17 21  1  0  0  0
 18 19  2  0  0  0
 19 20  1  0  0  0
 20 21  1  0  0  0
  9 10  1  0  0  0
M  END
> <minimizedAffinity>
-10.32595

$$$$
