CHEMBL4741847


 32 36  0  0  0  0  0  0  0  0999 V2000
  -16.7805   -0.2973  -14.1411 O   0  0  0  0  0  0  0  0  0  0  0  0
  -16.2634    0.6577  -14.6848 C   0  0  0  0  0  0  0  0  0  0  0  0
  -16.9607    1.7513  -15.5131 C   0  0  0  0  0  0  0  0  0  0  0  0
  -18.2173    1.9285  -15.7707 N   0  0  0  0  0  0  0  0  0  0  0  0
  -15.9067    2.6543  -15.9561 C   0  0  0  0  0  0  0  0  0  0  0  0
  -16.0017    3.8055  -16.7168 C   0  0  0  0  0  0  0  0  0  0  0  0
  -14.8139    4.4798  -16.9808 C   0  0  0  0  0  0  0  0  0  0  0  0
  -14.8496    5.9232  -17.9180 Cl  0  0  0  0  0  0  0  0  0  0  0  0
  -13.5828    4.0011  -16.4913 C   0  0  0  0  0  0  0  0  0  0  0  0
  -13.5209    2.8410  -15.7019 C   0  0  0  0  0  0  0  0  0  0  0  0
  -14.7036    2.1780  -15.4338 C   0  0  0  0  0  0  0  0  0  0  0  0
  -14.9215    1.0263  -14.6570 N   0  0  0  0  0  0  0  0  0  0  0  0
  -19.0308    0.9279  -15.2655 N   0  0  0  0  0  0  0  0  0  0  0  0
  -20.2153    1.2959  -14.8935 C   0  0  0  0  0  0  0  0  0  0  0  0
  -21.1799    0.4565  -14.4008 N   0  0  0  0  0  0  0  0  0  0  0  0
  -22.3703    1.0296  -14.0029 C   0  0  0  0  0  0  0  0  0  0  0  0
  -22.3963    2.3636  -14.1896 C   0  0  0  0  0  0  0  0  0  0  0  0
  -20.8909    2.9477  -14.8891 S   0  0  0  0  0  0  0  0  0  0  0  0
  -20.9620   -0.5097  -14.2137 H   0  0  0  0  0  0  0  0  0  0  0  0
  -23.4589    0.1998  -13.4627 C   0  0  0  0  0  0  0  0  0  0  0  0
  -23.9180    0.3956  -12.1493 C   0  0  0  0  0  0  0  0  0  0  0  0
  -24.9764   -0.3586  -11.6342 C   0  0  0  0  0  0  0  0  0  0  0  0
  -25.5900   -1.3259  -12.4241 C   0  0  0  0  0  0  0  0  0  0  0  0
  -25.1431   -1.5419  -13.7253 C   0  0  0  0  0  0  0  0  0  0  0  0
  -24.0861   -0.7845  -14.2416 C   0  0  0  0  0  0  0  0  0  0  0  0
  -13.9661    0.4337  -13.7474 C   0  0  0  0  0  0  0  0  0  0  0  0
  -13.4970   -0.9466  -14.1302 C   0  0  0  0  0  0  0  0  0  0  0  0
  -13.6276   -2.0124  -13.2262 C   0  0  0  0  0  0  0  0  0  0  0  0
  -13.2150   -3.2984  -13.5787 C   0  0  0  0  0  0  0  0  0  0  0  0
  -12.6813   -3.5365  -14.8430 C   0  0  0  0  0  0  0  0  0  0  0  0
  -12.5817   -2.4948  -15.7632 C   0  0  0  0  0  0  0  0  0  0  0  0
  -12.9934   -1.2075  -15.4123 C   0  0  0  0  0  0  0  0  0  0  0  0
  1  2  2  0  0  0
  2  3  1  0  0  0
  2 12  1  0  0  0
  3  4  2  0  0  0
  3  5  1  0  0  0
  4 13  1  0  0  0
 13 14  2  0  0  0
 14 15  1  0  0  0
 14 18  1  0  0  0
 15 16  1  0  0  0
 15 19  1  0  0  0
 16 20  1  0  0  0
 16 17  2  0  0  0
 20 21  1  0  0  0
 20 25  2  0  0  0
 21 22  2  0  0  0
 22 23  1  0  0  0
 23 24  2  0  0  0
 24 25  1  0  0  0
 17 18  1  0  0  0
  5  6  1  0  0  0
  5 11  2  0  0  0
  6  7  2  0  0  0
  7  8  1  0  0  0
  7  9  1  0  0  0
  9 10  2  0  0  0
 10 11  1  0  0  0
 11 12  1  0  0  0
 12 26  1  0  0  0
 26 27  1  0  0  0
 27 28  1  0  0  0
 27 32  2  0  0  0
 28 29  2  0  0  0
 29 30  1  0  0  0
 30 31  2  0  0  0
 31 32  1  0  0  0
M  END
> <minimizedAffinity>
-9.23012

$$$$
