CHEMBL368786


 27 29  0  0  0  0  0  0  0  0999 V2000
  -15.3395   -0.8115  -13.3545 C   0  0  0  0  0  0  0  0  0  0  0  0
  -14.2687    0.0578  -13.1725 C   0  0  0  0  0  0  0  0  0  0  0  0
  -14.1876    1.2602  -13.7861 N   0  0  0  0  0  0  0  0  0  0  0  0
  -15.2310    1.5554  -14.6000 C   0  0  0  0  0  0  0  0  0  0  0  0
  -16.2948    0.6807  -14.8516 C   0  0  0  0  0  0  0  0  0  0  0  0
  -16.3545   -0.5077  -14.2044 N   0  0  0  0  0  0  0  0  0  0  0  0
  -15.6471   -4.3804  -11.8777 C   0  0  0  0  0  0  0  0  0  0  0  0
  -15.9235   -3.5731  -10.8814 N   0  0  0  0  0  0  0  0  0  0  0  0
  -15.8493   -2.2618  -11.3033 C   0  0  0  0  0  0  0  0  0  0  0  0
  -15.5071   -2.0662  -12.6286 C   0  0  0  0  0  0  0  0  0  0  0  0
  -15.2793   -3.6005  -13.3632 S   0  0  0  0  0  0  0  0  0  0  0  0
  -15.6791   -5.7293  -11.8143 N   0  0  0  0  0  0  0  0  0  0  0  0
  -16.5251   -6.1558  -11.4533 H   0  0  0  0  0  0  0  0  0  0  0  0
  -14.4597   -6.4501  -11.4736 C   0  0  0  0  0  0  0  0  0  0  0  0
  -14.2149   -7.6477  -12.3979 C   0  0  0  0  0  0  0  0  0  0  0  0
  -15.9714   -7.7605  -14.0474 O   0  0  0  0  0  0  0  0  0  0  0  0
  -14.6147   -7.3900  -13.8440 C   0  0  0  0  0  0  0  0  0  0  0  0
  -16.1988   -7.5156  -14.9611 H   0  0  0  0  0  0  0  0  0  0  0  0
  -17.3487    1.0826  -15.7097 N   0  0  0  0  0  0  0  0  0  0  0  0
  -17.5483    0.3532  -16.3894 H   0  0  0  0  0  0  0  0  0  0  0  0
  -18.5904    1.6165  -15.2740 C   0  0  0  0  0  0  0  0  0  0  0  0
  -18.7419    2.9648  -14.9216 C   0  0  0  0  0  0  0  0  0  0  0  0
  -19.9421    3.4379  -14.3867 C   0  0  0  0  0  0  0  0  0  0  0  0
  -21.0058    2.5618  -14.1871 C   0  0  0  0  0  0  0  0  0  0  0  0
  -20.8583    1.2159  -14.5148 C   0  0  0  0  0  0  0  0  0  0  0  0
  -22.1673    0.1288  -14.2522 Cl  0  0  0  0  0  0  0  0  0  0  0  0
  -19.6570    0.7383  -15.0417 C   0  0  0  0  0  0  0  0  0  0  0  0
 16 17  1  0  0  0
 16 18  1  0  0  0
 17 15  1  0  0  0
 15 14  1  0  0  0
 14 12  1  0  0  0
 12  7  1  0  0  0
 12 13  1  0  0  0
  7  8  2  0  0  0
  7 11  1  0  0  0
  8  9  1  0  0  0
  9 10  2  0  0  0
 10  1  1  0  0  0
 10 11  1  0  0  0
  1  2  1  0  0  0
  1  6  2  0  0  0
  2  3  2  0  0  0
  3  4  1  0  0  0
  4  5  2  0  0  0
  5 19  1  0  0  0
  5  6  1  0  0  0
 19 21  1  0  0  0
 19 20  1  0  0  0
 21 22  1  0  0  0
 21 27  2  0  0  0
 22 23  2  0  0  0
 23 24  1  0  0  0
 24 25  2  0  0  0
 25 26  1  0  0  0
 25 27  1  0  0  0
M  END
> <minimizedAffinity>
-7.35149

$$$$
