CHEMBL425615


 40 45  0  0  0  0  0  0  0  0999 V2000
  -15.2045    1.5576  -16.3587 C   0  0  0  0  0  0  0  0  0  0  0  0
  -15.0147    0.6348  -17.3290 N   0  0  0  0  0  0  0  0  0  0  0  0
  -13.8371    0.0210  -16.9971 N   0  0  0  0  0  0  0  0  0  0  0  0
  -13.1660    0.6528  -15.9680 C   0  0  0  0  0  0  0  0  0  0  0  0
  -13.9883    1.7201  -15.6524 C   0  0  0  0  0  0  0  0  0  0  0  0
  -13.7181    2.2021  -14.2751 C   0  0  0  0  0  0  0  0  0  0  0  0
  -13.5819    0.7446  -13.7880 C   0  0  0  0  0  0  0  0  0  0  0  0
  -14.6289   -0.1110  -13.3763 C   0  0  0  0  0  0  0  0  0  0  0  0
  -14.4120   -1.5067  -13.4006 C   0  0  0  0  0  0  0  0  0  0  0  0
  -13.1087   -1.9528  -13.5946 C   0  0  0  0  0  0  0  0  0  0  0  0
  -12.2367   -1.1514  -14.3181 C   0  0  0  0  0  0  0  0  0  0  0  0
  -12.6450    0.1162  -14.6380 C   0  0  0  0  0  0  0  0  0  0  0  0
  -13.6029   -0.8417  -17.4583 H   0  0  0  0  0  0  0  0  0  0  0  0
  -18.8868    2.7682  -15.4633 C   0  0  0  0  0  0  0  0  0  0  0  0
  -18.1343    3.8791  -15.7333 C   0  0  0  0  0  0  0  0  0  0  0  0
  -16.7632    3.5388  -15.8527 C   0  0  0  0  0  0  0  0  0  0  0  0
  -16.5320    2.1686  -15.9157 C   0  0  0  0  0  0  0  0  0  0  0  0
  -17.9227    1.3461  -15.3575 S   0  0  0  0  0  0  0  0  0  0  0  0
  -20.3716    2.7557  -15.2987 C   0  0  0  0  0  0  0  0  0  0  0  0
  -22.2010   -0.2014  -14.1892 N   0  0  0  0  0  0  0  0  0  0  0  0
  -21.9117    1.1500  -14.2864 C   0  0  0  0  0  0  0  0  0  0  0  0
  -22.5367    2.0667  -13.7677 O   0  0  0  0  0  0  0  0  0  0  0  0
  -20.7800    1.3900  -15.0385 N   0  0  0  0  0  0  0  0  0  0  0  0
  -21.6770   -0.8161  -14.7903 H   0  0  0  0  0  0  0  0  0  0  0  0
  -20.5505    0.7241  -15.7577 H   0  0  0  0  0  0  0  0  0  0  0  0
  -24.8241   -0.7961  -15.4159 C   0  0  0  0  0  0  0  0  0  0  0  0
  -24.4938   -1.0552  -13.9747 C   0  0  0  0  0  0  0  0  0  0  0  0
  -25.5010   -1.6263  -13.1664 C   0  0  0  0  0  0  0  0  0  0  0  0
  -25.2809   -1.9132  -11.8237 C   0  0  0  0  0  0  0  0  0  0  0  0
  -24.0376   -1.6576  -11.2651 C   0  0  0  0  0  0  0  0  0  0  0  0
  -23.0284   -1.1029  -12.0543 C   0  0  0  0  0  0  0  0  0  0  0  0
  -23.2361   -0.7790  -13.3957 C   0  0  0  0  0  0  0  0  0  0  0  0
  -15.5445   -2.5115  -13.5808 C   0  0  0  0  0  0  0  0  0  0  0  0
  -15.7945   -3.3379  -12.3960 N   0  0  0  0  0  0  0  0  0  0  0  0
  -15.0923   -4.6217  -12.5113 C   0  0  0  0  0  0  0  0  0  0  0  0
  -15.3110   -5.5025  -11.2631 C   0  0  0  0  0  0  0  0  0  0  0  0
  -14.9188   -4.8736   -9.9877 N   0  0  0  0  0  0  0  0  0  0  0  0
  -13.4666   -4.7949   -9.8496 C   0  0  0  0  0  0  0  0  0  0  0  0
  -15.5480   -3.5396   -9.8949 C   0  0  0  0  0  0  0  0  0  0  0  0
  -15.3879   -2.6455  -11.1544 C   0  0  0  0  0  0  0  0  0  0  0  0
 26 27  1  0  0  0
 27 28  1  0  0  0
 27 32  2  0  0  0
 28 29  2  0  0  0
 29 30  1  0  0  0
 30 31  2  0  0  0
 31 32  1  0  0  0
 32 20  1  0  0  0
 20 21  1  0  0  0
 20 24  1  0  0  0
 21 22  2  0  0  0
 21 23  1  0  0  0
 23 19  1  0  0  0
 23 25  1  0  0  0
 19 14  1  0  0  0
 14 15  2  0  0  0
 14 18  1  0  0  0
 15 16  1  0  0  0
 16 17  2  0  0  0
 17  1  1  0  0  0
 17 18  1  0  0  0
  1  2  2  0  0  0
  1  5  1  0  0  0
  2  3  1  0  0  0
  3  4  1  0  0  0
  3 13  1  0  0  0
  4  5  2  0  0  0
  4 12  1  0  0  0
  5  6  1  0  0  0
  6  7  1  0  0  0
  7  8  1  0  0  0
  7 12  2  0  0  0
  8  9  2  0  0  0
  9 33  1  0  0  0
  9 10  1  0  0  0
 33 34  1  0  0  0
 34 35  1  0  0  0
 34 40  1  0  0  0
 35 36  1  0  0  0
 36 37  1  0  0  0
 37 38  1  0  0  0
 37 39  1  0  0  0
 39 40  1  0  0  0
 10 11  2  0  0  0
 11 12  1  0  0  0
M  END
> <minimizedAffinity>
-10.01445

$$$$
