CHEMBL437322


 18 19  0  0  0  0  0  0  0  0999 V2000
  -21.8840   -0.2709  -14.2916 N   0  0  0  0  0  0  0  0  0  0  0  0
  -21.1459   -0.9654  -14.3055 H   0  0  0  0  0  0  0  0  0  0  0  0
  -21.3489    1.0043  -14.4953 C   0  0  0  0  0  0  0  0  0  0  0  0
  -20.1011    1.2252  -15.0408 C   0  0  0  0  0  0  0  0  0  0  0  0
  -19.6942    2.5280  -15.2124 C   0  0  0  0  0  0  0  0  0  0  0  0
  -18.4079    2.7966  -15.6797 N   0  0  0  0  0  0  0  0  0  0  0  0
  -20.4547    3.5671  -14.8673 N   0  0  0  0  0  0  0  0  0  0  0  0
  -21.6468    3.2621  -14.3372 C   0  0  0  0  0  0  0  0  0  0  0  0
  -22.1371    2.0291  -14.1285 N   0  0  0  0  0  0  0  0  0  0  0  0
  -18.1606    2.2473  -16.4938 H   0  0  0  0  0  0  0  0  0  0  0  0
  -18.3164    3.7963  -15.8262 H   0  0  0  0  0  0  0  0  0  0  0  0
  -24.7980   -1.1068  -12.0868 C   0  0  0  0  0  0  0  0  0  0  0  0
  -25.1730   -1.1940  -13.4019 C   0  0  0  0  0  0  0  0  0  0  0  0
  -24.1913   -0.8561  -14.3123 N   0  0  0  0  0  0  0  0  0  0  0  0
  -23.0619   -0.5636  -13.6999 C   0  0  0  0  0  0  0  0  0  0  0  0
  -23.1798   -0.5647  -11.9756 S   0  0  0  0  0  0  0  0  0  0  0  0
  -26.2570   -1.7229  -10.0459 N   0  0  0  0  0  0  0  0  0  0  0  0
  -25.6087   -1.4476  -10.9733 C   0  0  0  0  0  0  0  0  0  0  0  0
 17 18  3  0  0  0
 18 12  1  0  0  0
 12 13  2  0  0  0
 12 16  1  0  0  0
 13 14  1  0  0  0
 14 15  2  0  0  0
 15  1  1  0  0  0
 15 16  1  0  0  0
  1  3  1  0  0  0
  1  2  1  0  0  0
  3  4  1  0  0  0
  3  9  2  0  0  0
  4  5  2  0  0  0
  5  6  1  0  0  0
  5  7  1  0  0  0
  6 10  1  0  0  0
  6 11  1  0  0  0
  7  8  2  0  0  0
  8  9  1  0  0  0
M  END
> <minimizedAffinity>
-6.42770

$$$$
