CHEMBL295247


 28 31  0  0  0  0  0  0  0  0999 V2000
  -27.6129   -8.4008   -4.7167 C   0  0  0  0  0  0  0  0  0  0  0  0
  -26.8686   -9.3754   -4.1789 N   0  0  0  0  0  0  0  0  0  0  0  0
  -26.5405  -10.4285   -4.9411 C   0  0  0  0  0  0  0  0  0  0  0  0
  -26.9351  -10.5618   -6.2423 C   0  0  0  0  0  0  0  0  0  0  0  0
  -27.6691   -9.5059   -6.7393 C   0  0  0  0  0  0  0  0  0  0  0  0
  -28.0327   -8.4430   -5.9859 N   0  0  0  0  0  0  0  0  0  0  0  0
  -27.9775   -9.4874   -8.1262 N   0  0  0  0  0  0  0  0  0  0  0  0
  -27.0608   -9.6410   -9.1464 C   0  0  0  0  0  0  0  0  0  0  0  0
  -27.7897   -9.7113  -10.3065 C   0  0  0  0  0  0  0  0  0  0  0  0
  -27.3131   -9.9646  -11.6852 C   0  0  0  0  0  0  0  0  0  0  0  0
  -29.1178   -9.5076  -10.0414 N   0  0  0  0  0  0  0  0  0  0  0  0
  -29.2256   -9.3061   -8.7348 C   0  0  0  0  0  0  0  0  0  0  0  0
  -30.4762   -8.8800   -8.0705 C   0  0  0  0  0  0  0  0  0  0  0  0
  -31.5752   -9.7503   -8.0444 C   0  0  0  0  0  0  0  0  0  0  0  0
  -32.7645   -9.3898   -7.3996 C   0  0  0  0  0  0  0  0  0  0  0  0
  -32.8706   -8.1554   -6.7622 C   0  0  0  0  0  0  0  0  0  0  0  0
  -31.8084   -7.2609   -6.8136 C   0  0  0  0  0  0  0  0  0  0  0  0
  -30.6404   -7.6079   -7.4971 C   0  0  0  0  0  0  0  0  0  0  0  0
  -27.9281   -7.2424   -4.0024 N   0  0  0  0  0  0  0  0  0  0  0  0
  -27.6329   -7.3528   -3.0421 H   0  0  0  0  0  0  0  0  0  0  0  0
  -32.3155   -5.1398   -3.0781 C   0  0  0  0  0  0  0  0  0  0  0  0
  -31.0330   -5.1498   -3.8526 C   0  0  0  0  0  0  0  0  0  0  0  0
  -30.7175   -4.1598   -4.7806 C   0  0  0  0  0  0  0  0  0  0  0  0
  -29.5059   -4.2075   -5.4793 C   0  0  0  0  0  0  0  0  0  0  0  0
  -29.1702   -3.1513   -6.4911 C   0  0  0  0  0  0  0  0  0  0  0  0
  -28.5965   -5.2483   -5.2177 C   0  0  0  0  0  0  0  0  0  0  0  0
  -28.8744   -6.2382   -4.2627 C   0  0  0  0  0  0  0  0  0  0  0  0
  -30.1171   -6.1842   -3.6245 C   0  0  0  0  0  0  0  0  0  0  0  0
 21 22  1  0  0  0
 22 23  1  0  0  0
 22 28  2  0  0  0
 23 24  2  0  0  0
 24 25  1  0  0  0
 24 26  1  0  0  0
 26 27  2  0  0  0
 27 19  1  0  0  0
 27 28  1  0  0  0
 19  1  1  0  0  0
 19 20  1  0  0  0
  1  2  1  0  0  0
  1  6  2  0  0  0
  2  3  2  0  0  0
  3  4  1  0  0  0
  4  5  2  0  0  0
  5  7  1  0  0  0
  5  6  1  0  0  0
  7  8  1  0  0  0
  7 12  1  0  0  0
  8  9  2  0  0  0
  9 10  1  0  0  0
  9 11  1  0  0  0
 11 12  2  0  0  0
 12 13  1  0  0  0
 13 14  1  0  0  0
 13 18  2  0  0  0
 14 15  2  0  0  0
 15 16  1  0  0  0
 16 17  2  0  0  0
 17 18  1  0  0  0
M  END
> <minimizedAffinity>
-8.18161

$$$$
