CHEMBL1999112


 31 34  0  0  0  0  0  0  0  0999 V2000
  -29.5140   -9.2784   -7.0175 C   0  0  0  0  0  0  0  0  0  0  0  0
  -29.5256   -8.0155   -6.5371 C   0  0  0  0  0  0  0  0  0  0  0  0
  -30.3986   -7.4448   -5.1411 S   0  0  0  0  0  0  0  0  0  0  0  0
  -29.7520   -5.8419   -5.2922 C   0  0  0  0  0  0  0  0  0  0  0  0
  -30.0811   -4.8335   -4.4681 C   0  0  0  0  0  0  0  0  0  0  0  0
  -28.8346   -5.7515   -6.4563 C   0  0  0  0  0  0  0  0  0  0  0  0
  -28.1729   -4.7638   -6.7546 O   0  0  0  0  0  0  0  0  0  0  0  0
  -28.8126   -6.9782   -7.1193 N   0  0  0  0  0  0  0  0  0  0  0  0
  -28.1113   -7.1727   -8.3036 C   0  0  0  0  0  0  0  0  0  0  0  0
  -27.5152   -6.0884   -8.9323 N   0  0  0  0  0  0  0  0  0  0  0  0
  -28.0254   -8.4150   -8.8283 C   0  0  0  0  0  0  0  0  0  0  0  0
  -28.6285   -9.6422   -8.1959 C   0  0  0  0  0  0  0  0  0  0  0  0
  -27.4241   -5.2775   -8.3064 H   0  0  0  0  0  0  0  0  0  0  0  0
  -26.6489   -6.2669   -9.4340 H   0  0  0  0  0  0  0  0  0  0  0  0
  -29.6190   -3.5064   -4.6673 C   0  0  0  0  0  0  0  0  0  0  0  0
  -28.5921   -2.8090   -4.0387 C   0  0  0  0  0  0  0  0  0  0  0  0
  -28.5166   -1.5254   -4.6300 C   0  0  0  0  0  0  0  0  0  0  0  0
  -29.5018   -1.4919   -5.5835 C   0  0  0  0  0  0  0  0  0  0  0  0
  -30.1809   -2.6645   -5.6026 O   0  0  0  0  0  0  0  0  0  0  0  0
  -27.5599  -10.6504   -7.8514 C   0  0  0  0  0  0  0  0  0  0  0  0
  -27.2274  -11.8925   -8.3535 C   0  0  0  0  0  0  0  0  0  0  0  0
  -26.0529  -12.2946   -7.6724 C   0  0  0  0  0  0  0  0  0  0  0  0
  -25.7492  -11.2806   -6.7958 C   0  0  0  0  0  0  0  0  0  0  0  0
  -26.6640  -10.2833   -6.8882 O   0  0  0  0  0  0  0  0  0  0  0  0
  -30.3240  -10.3854   -6.4342 C   0  0  0  0  0  0  0  0  0  0  0  0
  -30.1254  -10.9227   -5.3579 O   0  0  0  0  0  0  0  0  0  0  0  0
  -31.3388  -10.7086   -7.2830 O   0  0  0  0  0  0  0  0  0  0  0  0
  -33.0038   -8.9288   -7.3740 C   0  0  0  0  0  0  0  0  0  0  0  0
  -32.6591  -10.3197   -6.8724 C   0  0  0  0  0  0  0  0  0  0  0  0
  -27.1334   -8.5892  -10.0467 C   0  0  0  0  0  0  0  0  0  0  0  0
  -26.3934   -8.7337  -11.0575 N   0  0  0  0  0  0  0  0  0  0  0  0
 28 29  1  0  0  0
 29 27  1  0  0  0
 27 25  1  0  0  0
 25 26  2  0  0  0
 25  1  1  0  0  0
  1  2  2  0  0  0
  1 12  1  0  0  0
  2  3  1  0  0  0
  2  8  1  0  0  0
  3  4  1  0  0  0
  4  5  2  0  0  0
  4  6  1  0  0  0
  5 15  1  0  0  0
 15 16  2  0  0  0
 15 19  1  0  0  0
 16 17  1  0  0  0
 17 18  2  0  0  0
 18 19  1  0  0  0
  6  7  2  0  0  0
  6  8  1  0  0  0
  8  9  1  0  0  0
  9 10  1  0  0  0
  9 11  2  0  0  0
 10 13  1  0  0  0
 10 14  1  0  0  0
 11 30  1  0  0  0
 11 12  1  0  0  0
 30 31  3  0  0  0
 12 20  1  0  0  0
 20 21  2  0  0  0
 20 24  1  0  0  0
 21 22  1  0  0  0
 22 23  2  0  0  0
 23 24  1  0  0  0
M  END
> <minimizedAffinity>
-6.65352

$$$$
