CHEMBL3128219


 39 43  0  0  0  0  0  0  0  0999 V2000
  -27.1724   -1.5324   -9.5250 C   0  0  0  0  0  0  0  0  0  0  0  0
  -29.2344   -4.0300   -7.4495 C   0  0  0  0  0  0  0  0  0  0  0  0
  -29.2644   -3.3636   -6.2236 C   0  0  0  0  0  0  0  0  0  0  0  0
  -28.7145   -2.0878   -6.0879 C   0  0  0  0  0  0  0  0  0  0  0  0
  -28.0767   -1.4802   -7.1658 C   0  0  0  0  0  0  0  0  0  0  0  0
  -27.9523   -2.1593   -8.3850 C   0  0  0  0  0  0  0  0  0  0  0  0
  -28.5688   -3.4205   -8.5272 C   0  0  0  0  0  0  0  0  0  0  0  0
  -28.3372   -6.7376   -6.6261 O   0  0  0  0  0  0  0  0  0  0  0  0
  -29.3704   -6.5221   -7.2462 C   0  0  0  0  0  0  0  0  0  0  0  0
  -30.2225   -7.5483   -7.6019 N   0  0  0  0  0  0  0  0  0  0  0  0
  -29.8454   -5.2923   -7.6585 N   0  0  0  0  0  0  0  0  0  0  0  0
  -30.8250   -7.3984   -8.3945 H   0  0  0  0  0  0  0  0  0  0  0  0
  -30.7679   -5.2833   -8.0658 H   0  0  0  0  0  0  0  0  0  0  0  0
  -29.8329   -8.9194   -7.3404 C   0  0  0  0  0  0  0  0  0  0  0  0
  -29.0510   -9.5002   -8.4882 C   0  0  0  0  0  0  0  0  0  0  0  0
  -29.6877   -9.8622   -9.6832 C   0  0  0  0  0  0  0  0  0  0  0  0
  -28.9496  -10.3888  -10.7461 C   0  0  0  0  0  0  0  0  0  0  0  0
  -27.5722  -10.5632  -10.6236 C   0  0  0  0  0  0  0  0  0  0  0  0
  -26.9308  -10.2187   -9.4356 C   0  0  0  0  0  0  0  0  0  0  0  0
  -27.6671   -9.6962   -8.3708 C   0  0  0  0  0  0  0  0  0  0  0  0
  -26.7815   -2.5696  -10.4599 N   0  0  0  0  0  0  0  0  0  0  0  0
  -27.4428   -3.3340  -10.5142 H   0  0  0  0  0  0  0  0  0  0  0  0
  -26.3363   -2.1549  -11.7129 C   0  0  0  0  0  0  0  0  0  0  0  0
  -27.1786   -2.0987  -12.7771 N   0  0  0  0  0  0  0  0  0  0  0  0
  -26.7072   -1.6358  -13.9577 C   0  0  0  0  0  0  0  0  0  0  0  0
  -25.4664   -1.2114  -14.2486 N   0  0  0  0  0  0  0  0  0  0  0  0
  -24.6590   -1.2765  -13.1801 C   0  0  0  0  0  0  0  0  0  0  0  0
  -25.0157   -1.7332  -11.9198 C   0  0  0  0  0  0  0  0  0  0  0  0
  -23.8377   -1.6216  -11.1611 C   0  0  0  0  0  0  0  0  0  0  0  0
  -22.8084   -1.1344  -11.8539 N   0  0  0  0  0  0  0  0  0  0  0  0
  -23.3387   -0.8983  -13.0832 N   0  0  0  0  0  0  0  0  0  0  0  0
  -22.4691   -0.3390  -14.1051 C   0  0  0  0  0  0  0  0  0  0  0  0
  -22.3636    1.1845  -14.1131 C   0  0  0  0  0  0  0  0  0  0  0  0
  -21.0069    1.6793  -14.5557 C   0  0  0  0  0  0  0  0  0  0  0  0
  -19.9739    0.7719  -14.8316 C   0  0  0  0  0  0  0  0  0  0  0  0
  -18.7401    1.2263  -15.3010 C   0  0  0  0  0  0  0  0  0  0  0  0
  -18.5247    2.5899  -15.4896 C   0  0  0  0  0  0  0  0  0  0  0  0
  -19.5368    3.5013  -15.1940 C   0  0  0  0  0  0  0  0  0  0  0  0
  -20.7710    3.0495  -14.7239 C   0  0  0  0  0  0  0  0  0  0  0  0
  8  9  2  0  0  0
  9 10  1  0  0  0
  9 11  1  0  0  0
 10 14  1  0  0  0
 10 12  1  0  0  0
 14 15  1  0  0  0
 15 16  1  0  0  0
 15 20  2  0  0  0
 16 17  2  0  0  0
 17 18  1  0  0  0
 18 19  2  0  0  0
 19 20  1  0  0  0
 11  2  1  0  0  0
 11 13  1  0  0  0
  2  3  1  0  0  0
  2  7  2  0  0  0
  3  4  2  0  0  0
  4  5  1  0  0  0
  5  6  2  0  0  0
  6  1  1  0  0  0
  6  7  1  0  0  0
  1 21  1  0  0  0
 21 23  1  0  0  0
 21 22  1  0  0  0
 23 24  1  0  0  0
 23 28  2  0  0  0
 24 25  2  0  0  0
 25 26  1  0  0  0
 26 27  2  0  0  0
 27 28  1  0  0  0
 27 31  1  0  0  0
 28 29  1  0  0  0
 29 30  2  0  0  0
 30 31  1  0  0  0
 31 32  1  0  0  0
 32 33  1  0  0  0
 33 34  1  0  0  0
 34 35  1  0  0  0
 34 39  2  0  0  0
 35 36  2  0  0  0
 36 37  1  0  0  0
 37 38  2  0  0  0
 38 39  1  0  0  0
M  END
> <minimizedAffinity>
-11.16962

$$$$
