CHEMBL2018878


 38 40  0  0  0  0  0  0  0  0999 V2000
  -28.2699  -10.4933   -6.3873 C   0  0  0  0  0  0  0  0  0  0  0  0
  -29.1789   -9.5570   -5.8940 C   0  0  0  0  0  0  0  0  0  0  0  0
  -30.3924   -9.2913   -6.5389 C   0  0  0  0  0  0  0  0  0  0  0  0
  -31.2102   -8.1992   -6.2061 C   0  0  0  0  0  0  0  0  0  0  0  0
  -32.4063   -8.0204   -6.7843 N   0  0  0  0  0  0  0  0  0  0  0  0
  -32.7547   -8.9176   -7.7146 C   0  0  0  0  0  0  0  0  0  0  0  0
  -32.0178   -9.9544   -8.1443 N   0  0  0  0  0  0  0  0  0  0  0  0
  -30.8258  -10.1329   -7.5629 C   0  0  0  0  0  0  0  0  0  0  0  0
  -29.9746  -11.1750   -7.9570 C   0  0  0  0  0  0  0  0  0  0  0  0
  -28.7036  -11.3741   -7.3881 C   0  0  0  0  0  0  0  0  0  0  0  0
  -30.7202   -7.2302   -5.2912 N   0  0  0  0  0  0  0  0  0  0  0  0
  -30.1113   -7.6592   -4.6037 H   0  0  0  0  0  0  0  0  0  0  0  0
  -30.4643   -5.8641   -5.4990 C   0  0  0  0  0  0  0  0  0  0  0  0
  -29.8928   -5.4316   -6.6961 C   0  0  0  0  0  0  0  0  0  0  0  0
  -29.4382   -4.1139   -6.8403 C   0  0  0  0  0  0  0  0  0  0  0  0
  -29.4981   -3.2005   -5.7789 C   0  0  0  0  0  0  0  0  0  0  0  0
  -30.0825   -3.6181   -4.5707 C   0  0  0  0  0  0  0  0  0  0  0  0
  -30.1979   -2.7705   -3.3348 C   0  0  0  0  0  0  0  0  0  0  0  0
  -30.5715   -4.9347   -4.4636 C   0  0  0  0  0  0  0  0  0  0  0  0
  -28.9626   -1.8993   -5.8936 N   0  0  0  0  0  0  0  0  0  0  0  0
  -27.7134   -1.4883   -5.5084 C   0  0  0  0  0  0  0  0  0  0  0  0
  -26.8244   -2.1598   -5.0144 O   0  0  0  0  0  0  0  0  0  0  0  0
  -29.5709   -1.1453   -6.1777 H   0  0  0  0  0  0  0  0  0  0  0  0
  -27.6121   -0.1439   -5.7184 O   0  0  0  0  0  0  0  0  0  0  0  0
  -28.6406    0.6074   -5.0663 C   0  0  0  0  0  0  0  0  0  0  0  0
  -26.9595  -10.5171   -5.9663 O   0  0  0  0  0  0  0  0  0  0  0  0
  -26.5745   -9.4459   -5.0984 C   0  0  0  0  0  0  0  0  0  0  0  0
  -25.9621   -9.9314   -3.7923 C   0  0  0  0  0  0  0  0  0  0  0  0
  -23.7535  -10.8510   -2.9211 C   0  0  0  0  0  0  0  0  0  0  0  0
  -24.6401  -10.6331   -4.1288 C   0  0  0  0  0  0  0  0  0  0  0  0
  -27.9730  -12.4365   -7.8999 O   0  0  0  0  0  0  0  0  0  0  0  0
  -27.6781  -12.2572   -9.2962 C   0  0  0  0  0  0  0  0  0  0  0  0
  -26.5923  -11.1922   -9.5943 C   0  0  0  0  0  0  0  0  0  0  0  0
  -27.0539  -10.1956  -10.6022 N   0  0  0  0  0  0  0  0  0  0  0  0
  -28.4373  -10.4131  -11.0554 C   0  0  0  0  0  0  0  0  0  0  0  0
  -28.7074  -10.1224  -12.5271 C   0  0  0  0  0  0  0  0  0  0  0  0
  -26.7783   -8.8117  -10.1842 C   0  0  0  0  0  0  0  0  0  0  0  0
  -27.7566   -8.2813   -9.1307 C   0  0  0  0  0  0  0  0  0  0  0  0
 29 30  1  0  0  0
 30 28  1  0  0  0
 28 27  1  0  0  0
 27 26  1  0  0  0
 26  1  1  0  0  0
  1  2  1  0  0  0
  1 10  2  0  0  0
  2  3  2  0  0  0
  3  4  1  0  0  0
  3  8  1  0  0  0
  4 11  1  0  0  0
  4  5  2  0  0  0
 11 13  1  0  0  0
 11 12  1  0  0  0
 13 14  1  0  0  0
 13 19  2  0  0  0
 14 15  2  0  0  0
 15 16  1  0  0  0
 16 20  1  0  0  0
 16 17  2  0  0  0
 20 21  1  0  0  0
 20 23  1  0  0  0
 21 22  2  0  0  0
 21 24  1  0  0  0
 24 25  1  0  0  0
 17 18  1  0  0  0
 17 19  1  0  0  0
  5  6  1  0  0  0
  6  7  2  0  0  0
  7  8  1  0  0  0
  8  9  2  0  0  0
  9 10  1  0  0  0
 10 31  1  0  0  0
 31 32  1  0  0  0
 32 33  1  0  0  0
 33 34  1  0  0  0
 34 35  1  0  0  0
 34 37  1  0  0  0
 35 36  1  0  0  0
 37 38  1  0  0  0
M  END
> <minimizedAffinity>
-6.97707

$$$$
