CHEMBL4290371


 39 43  0  0  0  0  0  0  0  0999 V2000
  -21.5514    0.9026  -14.3642 C   0  0  0  0  0  0  0  0  0  0  0  0
  -22.3348    1.9713  -13.9295 C   0  0  0  0  0  0  0  0  0  0  0  0
  -21.8708    3.2396  -14.1447 C   0  0  0  0  0  0  0  0  0  0  0  0
  -20.7178    3.4921  -14.7735 N   0  0  0  0  0  0  0  0  0  0  0  0
  -19.9623    2.4762  -15.2117 C   0  0  0  0  0  0  0  0  0  0  0  0
  -20.3426    1.1501  -15.0268 C   0  0  0  0  0  0  0  0  0  0  0  0
  -18.7378    2.7766  -15.8553 N   0  0  0  0  0  0  0  0  0  0  0  0
  -17.5107    2.3777  -15.3230 C   0  0  0  0  0  0  0  0  0  0  0  0
  -17.3296    1.7206  -14.3009 O   0  0  0  0  0  0  0  0  0  0  0  0
  -18.7709    3.2700  -16.7191 H   0  0  0  0  0  0  0  0  0  0  0  0
  -16.2699    2.7795  -16.0445 C   0  0  0  0  0  0  0  0  0  0  0  0
  -15.3198    1.8813  -16.5175 C   0  0  0  0  0  0  0  0  0  0  0  0
  -14.2669    2.3533  -17.3155 C   0  0  0  0  0  0  0  0  0  0  0  0
  -14.1263    3.7122  -17.6530 C   0  0  0  0  0  0  0  0  0  0  0  0
  -15.0910    4.5957  -17.1672 C   0  0  0  0  0  0  0  0  0  0  0  0
  -16.1398    4.1393  -16.3681 C   0  0  0  0  0  0  0  0  0  0  0  0
  -13.0973    4.1328  -18.4606 N   0  0  0  0  0  0  0  0  0  0  0  0
  -12.7325    5.5475  -18.6142 C   0  0  0  0  0  0  0  0  0  0  0  0
  -12.4480    5.8337  -20.1077 C   0  0  0  0  0  0  0  0  0  0  0  0
  -11.4107    4.9293  -20.6595 N   0  0  0  0  0  0  0  0  0  0  0  0
  -11.1626    5.2246  -22.0655 C   0  0  0  0  0  0  0  0  0  0  0  0
  -11.8513    3.5258  -20.4863 C   0  0  0  0  0  0  0  0  0  0  0  0
  -12.1285    3.1783  -19.0104 C   0  0  0  0  0  0  0  0  0  0  0  0
  -21.9455   -0.4108  -14.2298 O   0  0  0  0  0  0  0  0  0  0  0  0
  -26.8041   -1.7990  -11.7322 C   0  0  0  0  0  0  0  0  0  0  0  0
  -27.9106   -2.0870  -12.5463 C   0  0  0  0  0  0  0  0  0  0  0  0
  -27.8076   -2.0048  -13.9307 C   0  0  0  0  0  0  0  0  0  0  0  0
  -26.5966   -1.6375  -14.5176 C   0  0  0  0  0  0  0  0  0  0  0  0
  -25.4676   -1.3456  -13.7335 C   0  0  0  0  0  0  0  0  0  0  0  0
  -24.2426   -0.9889  -14.3383 C   0  0  0  0  0  0  0  0  0  0  0  0
  -23.1186   -0.6920  -13.5644 C   0  0  0  0  0  0  0  0  0  0  0  0
  -23.2145   -0.7492  -12.1792 C   0  0  0  0  0  0  0  0  0  0  0  0
  -24.4132   -1.0991  -11.5738 C   0  0  0  0  0  0  0  0  0  0  0  0
  -25.5667   -1.4128  -12.3191 C   0  0  0  0  0  0  0  0  0  0  0  0
  -28.3661   -2.5783   -8.3712 C   0  0  0  0  0  0  0  0  0  0  0  0
  -28.1378   -2.4564   -9.7872 N   0  0  0  0  0  0  0  0  0  0  0  0
  -26.9774   -1.8651  -10.2441 C   0  0  0  0  0  0  0  0  0  0  0  0
  -26.1407   -1.4169   -9.4690 O   0  0  0  0  0  0  0  0  0  0  0  0
  -28.7317   -2.9692  -10.4228 H   0  0  0  0  0  0  0  0  0  0  0  0
 35 36  1  0  0  0
 36 37  1  0  0  0
 36 39  1  0  0  0
 37 38  2  0  0  0
 37 25  1  0  0  0
 25 26  1  0  0  0
 25 34  2  0  0  0
 26 27  2  0  0  0
 27 28  1  0  0  0
 28 29  2  0  0  0
 29 30  1  0  0  0
 29 34  1  0  0  0
 30 31  2  0  0  0
 31 24  1  0  0  0
 31 32  1  0  0  0
 24  1  1  0  0  0
  1  2  1  0  0  0
  1  6  2  0  0  0
  2  3  2  0  0  0
  3  4  1  0  0  0
  4  5  2  0  0  0
  5  7  1  0  0  0
  5  6  1  0  0  0
  7  8  1  0  0  0
  7 10  1  0  0  0
  8  9  2  0  0  0
  8 11  1  0  0  0
 11 12  1  0  0  0
 11 16  2  0  0  0
 12 13  2  0  0  0
 13 14  1  0  0  0
 14 17  1  0  0  0
 14 15  2  0  0  0
 17 18  1  0  0  0
 17 23  1  0  0  0
 18 19  1  0  0  0
 19 20  1  0  0  0
 20 21  1  0  0  0
 20 22  1  0  0  0
 22 23  1  0  0  0
 15 16  1  0  0  0
 32 33  2  0  0  0
 33 34  1  0  0  0
M  END
> <minimizedAffinity>
-11.60318

$$$$
