CHEMBL458330


 33 37  0  0  0  0  0  0  0  0999 V2000
  -29.8049   -7.9888   -6.9524 C   0  0  0  0  0  0  0  0  0  0  0  0
  -29.1794   -7.1490   -7.8773 C   0  0  0  0  0  0  0  0  0  0  0  0
  -29.1212   -5.7574   -7.6758 C   0  0  0  0  0  0  0  0  0  0  0  0
  -29.7118   -5.2015   -6.5213 C   0  0  0  0  0  0  0  0  0  0  0  0
  -29.8614   -3.8951   -5.9519 C   0  0  0  0  0  0  0  0  0  0  0  0
  -30.4961   -3.9576   -4.7771 N   0  0  0  0  0  0  0  0  0  0  0  0
  -30.8183   -5.2470   -4.6308 N   0  0  0  0  0  0  0  0  0  0  0  0
  -31.6547   -5.6389   -3.5218 C   0  0  0  0  0  0  0  0  0  0  0  0
  -30.3374   -6.0625   -5.6206 C   0  0  0  0  0  0  0  0  0  0  0  0
  -30.4187   -7.4516   -5.8131 C   0  0  0  0  0  0  0  0  0  0  0  0
  -29.4438   -2.7460   -6.5483 N   0  0  0  0  0  0  0  0  0  0  0  0
  -29.4299   -2.6888   -7.5575 H   0  0  0  0  0  0  0  0  0  0  0  0
  -29.0243   -1.5567   -5.9103 C   0  0  0  0  0  0  0  0  0  0  0  0
  -29.8645   -0.4363   -5.8312 C   0  0  0  0  0  0  0  0  0  0  0  0
  -29.4365    0.7531   -5.2380 C   0  0  0  0  0  0  0  0  0  0  0  0
  -28.1405    0.8528   -4.7433 C   0  0  0  0  0  0  0  0  0  0  0  0
  -27.2776   -0.2375   -4.8416 C   0  0  0  0  0  0  0  0  0  0  0  0
  -27.7165   -1.4397   -5.4209 C   0  0  0  0  0  0  0  0  0  0  0  0
  -29.8315   -9.3397   -7.2629 O   0  0  0  0  0  0  0  0  0  0  0  0
  -25.0002  -10.8854   -6.7335 C   0  0  0  0  0  0  0  0  0  0  0  0
  -25.3971  -11.0340   -8.0714 C   0  0  0  0  0  0  0  0  0  0  0  0
  -26.6666  -10.7017   -8.5199 C   0  0  0  0  0  0  0  0  0  0  0  0
  -26.9034  -10.7984   -9.8390 N   0  0  0  0  0  0  0  0  0  0  0  0
  -28.1218  -10.4512  -10.2925 C   0  0  0  0  0  0  0  0  0  0  0  0
  -29.1353   -9.9886   -9.4836 C   0  0  0  0  0  0  0  0  0  0  0  0
  -28.8696   -9.8505   -8.1214 C   0  0  0  0  0  0  0  0  0  0  0  0
  -27.6211  -10.2487   -7.5957 C   0  0  0  0  0  0  0  0  0  0  0  0
  -27.2639  -10.2155   -6.2272 C   0  0  0  0  0  0  0  0  0  0  0  0
  -25.9623  -10.5197   -5.7865 C   0  0  0  0  0  0  0  0  0  0  0  0
  -22.8615   -9.9446   -6.3179 C   0  0  0  0  0  0  0  0  0  0  0  0
  -23.7012  -11.1066   -6.3553 O   0  0  0  0  0  0  0  0  0  0  0  0
  -25.8322  -10.3803   -4.4317 O   0  0  0  0  0  0  0  0  0  0  0  0
  -25.6003   -9.0993   -3.8669 C   0  0  0  0  0  0  0  0  0  0  0  0
 30 31  1  0  0  0
 31 20  1  0  0  0
 20 21  1  0  0  0
 20 29  2  0  0  0
 21 22  2  0  0  0
 22 23  1  0  0  0
 22 27  1  0  0  0
 23 24  2  0  0  0
 24 25  1  0  0  0
 25 26  2  0  0  0
 26 19  1  0  0  0
 26 27  1  0  0  0
 19  1  1  0  0  0
  1  2  1  0  0  0
  1 10  2  0  0  0
  2  3  2  0  0  0
  3  4  1  0  0  0
  4  5  1  0  0  0
  4  9  2  0  0  0
  5 11  1  0  0  0
  5  6  2  0  0  0
 11 13  1  0  0  0
 11 12  1  0  0  0
 13 14  1  0  0  0
 13 18  2  0  0  0
 14 15  2  0  0  0
 15 16  1  0  0  0
 16 17  2  0  0  0
 17 18  1  0  0  0
  6  7  1  0  0  0
  7  8  1  0  0  0
  7  9  1  0  0  0
  9 10  1  0  0  0
 27 28  2  0  0  0
 28 29  1  0  0  0
 29 32  1  0  0  0
 32 33  1  0  0  0
M  END
> <minimizedAffinity>
-8.81611

$$$$
