CHEMBL3694698


 38 41  0  0  0  0  0  0  0  0999 V2000
  -27.5327   -2.1562   -8.8969 C   0  0  0  0  0  0  0  0  0  0  0  0
  -28.0775   -3.4955   -8.6364 C   0  0  0  0  0  0  0  0  0  0  0  0
  -28.7292   -3.7549   -7.4937 C   0  0  0  0  0  0  0  0  0  0  0  0
  -28.8398   -2.7664   -6.5113 N   0  0  0  0  0  0  0  0  0  0  0  0
  -29.4031   -2.7918   -5.2311 C   0  0  0  0  0  0  0  0  0  0  0  0
  -29.2519   -1.4864   -4.7842 C   0  0  0  0  0  0  0  0  0  0  0  0
  -28.5965   -0.6962   -5.6895 N   0  0  0  0  0  0  0  0  0  0  0  0
  -28.3355   -1.4826   -6.7093 C   0  0  0  0  0  0  0  0  0  0  0  0
  -27.6650   -1.2056   -7.9406 C   0  0  0  0  0  0  0  0  0  0  0  0
  -25.6663   -1.4333  -12.6008 C   0  0  0  0  0  0  0  0  0  0  0  0
  -25.0319   -1.2610  -11.3846 C   0  0  0  0  0  0  0  0  0  0  0  0
  -25.6233   -1.4388  -10.1861 N   0  0  0  0  0  0  0  0  0  0  0  0
  -26.9103   -1.8160  -10.2073 C   0  0  0  0  0  0  0  0  0  0  0  0
  -27.6257   -1.9848  -11.3348 N   0  0  0  0  0  0  0  0  0  0  0  0
  -27.0039   -1.7886  -12.5143 C   0  0  0  0  0  0  0  0  0  0  0  0
  -27.8295   -2.0407  -13.6055 N   0  0  0  0  0  0  0  0  0  0  0  0
  -28.7534   -2.2642  -13.2361 H   0  0  0  0  0  0  0  0  0  0  0  0
  -27.8955   -1.2676  -14.2567 H   0  0  0  0  0  0  0  0  0  0  0  0
  -23.4204   -0.7810  -13.7391 C   0  0  0  0  0  0  0  0  0  0  0  0
  -24.8456   -1.2510  -13.8239 C   0  0  0  0  0  0  0  0  0  0  0  0
  -25.3527   -1.4934  -14.9194 O   0  0  0  0  0  0  0  0  0  0  0  0
  -29.9516   -3.9638   -4.5238 C   0  0  0  0  0  0  0  0  0  0  0  0
  -31.3341   -4.0762   -4.3281 C   0  0  0  0  0  0  0  0  0  0  0  0
  -31.8795   -5.1597   -3.6559 C   0  0  0  0  0  0  0  0  0  0  0  0
  -31.0578   -6.1980   -3.2413 C   0  0  0  0  0  0  0  0  0  0  0  0
  -29.6839   -6.1809   -3.4925 C   0  0  0  0  0  0  0  0  0  0  0  0
  -29.1302   -5.0372   -4.1009 C   0  0  0  0  0  0  0  0  0  0  0  0
  -28.8475   -7.2868   -3.1676 N   0  0  0  0  0  0  0  0  0  0  0  0
  -28.1241   -8.0363   -4.0707 C   0  0  0  0  0  0  0  0  0  0  0  0
  -28.0759   -7.8830   -5.2905 O   0  0  0  0  0  0  0  0  0  0  0  0
  -27.4418   -9.0837   -3.4941 N   0  0  0  0  0  0  0  0  0  0  0  0
  -28.7405   -7.5056   -2.1899 H   0  0  0  0  0  0  0  0  0  0  0  0
  -27.1397   -8.9764   -2.5408 H   0  0  0  0  0  0  0  0  0  0  0  0
  -26.6388   -9.9477   -4.3796 C   0  0  0  0  0  0  0  0  0  0  0  0
  -25.1243   -9.6909   -4.4044 C   0  0  0  0  0  0  0  0  0  0  0  0
  -24.6437   -9.5519   -5.6600 F   0  0  0  0  0  0  0  0  0  0  0  0
  -24.8452   -8.5345   -3.7487 F   0  0  0  0  0  0  0  0  0  0  0  0
  -24.4255  -10.6712   -3.7917 F   0  0  0  0  0  0  0  0  0  0  0  0
 19 20  1  0  0  0
 20 21  2  0  0  0
 20 10  1  0  0  0
 10 11  1  0  0  0
 10 15  2  0  0  0
 11 12  2  0  0  0
 12 13  1  0  0  0
 13  1  1  0  0  0
 13 14  2  0  0  0
  1  2  1  0  0  0
  1  9  2  0  0  0
  2  3  2  0  0  0
  3  4  1  0  0  0
  4  5  1  0  0  0
  4  8  1  0  0  0
  5 22  1  0  0  0
  5  6  2  0  0  0
 22 23  1  0  0  0
 22 27  2  0  0  0
 23 24  2  0  0  0
 24 25  1  0  0  0
 25 26  2  0  0  0
 26 28  1  0  0  0
 26 27  1  0  0  0
 28 29  1  0  0  0
 28 32  1  0  0  0
 29 30  2  0  0  0
 29 31  1  0  0  0
 31 34  1  0  0  0
 31 33  1  0  0  0
 34 35  1  0  0  0
 35 36  1  0  0  0
 35 37  1  0  0  0
 35 38  1  0  0  0
  6  7  1  0  0  0
  7  8  2  0  0  0
  8  9  1  0  0  0
 14 15  1  0  0  0
 15 16  1  0  0  0
 16 17  1  0  0  0
 16 18  1  0  0  0
M  END
> <minimizedAffinity>
-10.75196

$$$$
