CHEMBL1993966


 26 27  0  0  0  0  0  0  0  0999 V2000
  -15.1957   -0.0127  -12.5965 N   0  0  0  0  0  0  0  0  0  0  0  0
  -15.4903    0.4545  -11.7480 H   0  0  0  0  0  0  0  0  0  0  0  0
  -16.6112    1.9693  -15.4455 C   0  0  0  0  0  0  0  0  0  0  0  0
  -16.5186    1.2144  -14.2708 C   0  0  0  0  0  0  0  0  0  0  0  0
  -15.2836    0.7933  -13.7531 C   0  0  0  0  0  0  0  0  0  0  0  0
  -14.1162    1.2053  -14.3906 C   0  0  0  0  0  0  0  0  0  0  0  0
  -14.1813    1.9370  -15.5832 C   0  0  0  0  0  0  0  0  0  0  0  0
  -15.4290    2.3391  -16.1089 C   0  0  0  0  0  0  0  0  0  0  0  0
  -18.6757    3.1657  -15.3096 C   0  0  0  0  0  0  0  0  0  0  0  0
  -17.8152    2.2835  -16.0218 O   0  0  0  0  0  0  0  0  0  0  0  0
  -13.0579    2.3314  -16.2724 O   0  0  0  0  0  0  0  0  0  0  0  0
  -11.8222    2.1116  -15.6001 C   0  0  0  0  0  0  0  0  0  0  0  0
  -15.3692    3.0185  -17.3043 O   0  0  0  0  0  0  0  0  0  0  0  0
  -15.5069    4.4319  -17.2427 C   0  0  0  0  0  0  0  0  0  0  0  0
  -15.6094   -1.3468  -12.5296 C   0  0  0  0  0  0  0  0  0  0  0  0
  -15.8686   -1.9853  -13.6735 N   0  0  0  0  0  0  0  0  0  0  0  0
  -16.1508   -3.3039  -13.5787 C   0  0  0  0  0  0  0  0  0  0  0  0
  -16.1718   -4.0094  -12.3969 C   0  0  0  0  0  0  0  0  0  0  0  0
  -15.9192   -3.2585  -11.2826 C   0  0  0  0  0  0  0  0  0  0  0  0
  -15.6627   -1.9440  -11.3324 N   0  0  0  0  0  0  0  0  0  0  0  0
  -16.4123   -5.4678  -12.3458 C   0  0  0  0  0  0  0  0  0  0  0  0
  -16.5329   -6.0246  -13.5885 F   0  0  0  0  0  0  0  0  0  0  0  0
  -15.4043   -6.1584  -11.7471 F   0  0  0  0  0  0  0  0  0  0  0  0
  -17.5556   -5.8092  -11.6891 F   0  0  0  0  0  0  0  0  0  0  0  0
  -15.8758   -3.8807  -10.0540 O   0  0  0  0  0  0  0  0  0  0  0  0
  -14.5852   -3.8174   -9.4394 C   0  0  0  0  0  0  0  0  0  0  0  0
  9 10  1  0  0  0
 10  3  1  0  0  0
  3  4  1  0  0  0
  3  8  2  0  0  0
  4  5  2  0  0  0
  5  1  1  0  0  0
  5  6  1  0  0  0
  1 15  1  0  0  0
  1  2  1  0  0  0
 15 16  1  0  0  0
 15 20  2  0  0  0
 16 17  2  0  0  0
 17 18  1  0  0  0
 18 21  1  0  0  0
 18 19  2  0  0  0
 21 22  1  0  0  0
 21 23  1  0  0  0
 21 24  1  0  0  0
 19 25  1  0  0  0
 19 20  1  0  0  0
 25 26  1  0  0  0
  6  7  2  0  0  0
  7 11  1  0  0  0
  7  8  1  0  0  0
 11 12  1  0  0  0
  8 13  1  0  0  0
 13 14  1  0  0  0
M  END
> <minimizedAffinity>
-6.72355

$$$$
