CHEMBL79475


 30 34  0  0  0  0  0  0  0  0999 V2000
  -30.8280  -11.5823   -8.5782 O   0  0  0  0  0  0  0  0  0  0  0  0
  -30.7245  -10.4167   -8.2117 C   0  0  0  0  0  0  0  0  0  0  0  0
  -31.9579   -9.6167   -8.0071 C   0  0  0  0  0  0  0  0  0  0  0  0
  -31.8804   -8.3537   -7.5562 C   0  0  0  0  0  0  0  0  0  0  0  0
  -30.5964   -7.7759   -7.2419 C   0  0  0  0  0  0  0  0  0  0  0  0
  -29.4749   -8.4819   -7.4540 C   0  0  0  0  0  0  0  0  0  0  0  0
  -29.5172   -9.7615   -7.9827 N   0  0  0  0  0  0  0  0  0  0  0  0
  -30.4478   -6.4258   -6.7169 C   0  0  0  0  0  0  0  0  0  0  0  0
  -29.8061   -5.4555   -7.4924 C   0  0  0  0  0  0  0  0  0  0  0  0
  -29.5679   -4.1833   -6.9839 C   0  0  0  0  0  0  0  0  0  0  0  0
  -29.9265   -3.9741   -5.6465 C   0  0  0  0  0  0  0  0  0  0  0  0
  -30.5327   -4.9370   -4.8510 C   0  0  0  0  0  0  0  0  0  0  0  0
  -30.8749   -6.1696   -5.4068 C   0  0  0  0  0  0  0  0  0  0  0  0
  -30.6231   -4.5339   -3.5472 N   0  0  0  0  0  0  0  0  0  0  0  0
  -29.9850   -3.3862   -3.5209 C   0  0  0  0  0  0  0  0  0  0  0  0
  -29.6848   -2.9361   -4.7865 N   0  0  0  0  0  0  0  0  0  0  0  0
  -29.2077   -1.6545   -5.1037 C   0  0  0  0  0  0  0  0  0  0  0  0
  -27.8594   -1.3827   -4.8872 C   0  0  0  0  0  0  0  0  0  0  0  0
  -27.4283   -0.0665   -4.8921 C   0  0  0  0  0  0  0  0  0  0  0  0
  -28.3408    0.9619   -5.1297 C   0  0  0  0  0  0  0  0  0  0  0  0
  -29.6726    0.6759   -5.4433 C   0  0  0  0  0  0  0  0  0  0  0  0
  -30.1137   -0.6447   -5.4550 C   0  0  0  0  0  0  0  0  0  0  0  0
  -28.2419  -10.4459   -8.2360 C   0  0  0  0  0  0  0  0  0  0  0  0
  -27.6310  -11.1028   -6.9800 C   0  0  0  0  0  0  0  0  0  0  0  0
  -26.6693  -10.2294   -6.2743 N   0  0  0  0  0  0  0  0  0  0  0  0
  -27.1711   -9.8650   -4.9389 C   0  0  0  0  0  0  0  0  0  0  0  0
  -26.2292   -8.8769   -4.2577 C   0  0  0  0  0  0  0  0  0  0  0  0
  -24.8210   -9.4431   -4.1482 C   0  0  0  0  0  0  0  0  0  0  0  0
  -24.3338   -9.9196   -5.5118 C   0  0  0  0  0  0  0  0  0  0  0  0
  -25.3450  -10.8705   -6.1640 C   0  0  0  0  0  0  0  0  0  0  0  0
  1  2  2  0  0  0
  2  3  1  0  0  0
  2  7  1  0  0  0
  3  4  2  0  0  0
  4  5  1  0  0  0
  5  8  1  0  0  0
  5  6  2  0  0  0
  8  9  1  0  0  0
  8 13  2  0  0  0
  9 10  2  0  0  0
 10 11  1  0  0  0
 11 12  2  0  0  0
 11 16  1  0  0  0
 12 13  1  0  0  0
 12 14  1  0  0  0
 14 15  2  0  0  0
 15 16  1  0  0  0
 16 17  1  0  0  0
 17 18  1  0  0  0
 17 22  2  0  0  0
 18 19  2  0  0  0
 19 20  1  0  0  0
 20 21  2  0  0  0
 21 22  1  0  0  0
  6  7  1  0  0  0
  7 23  1  0  0  0
 23 24  1  0  0  0
 24 25  1  0  0  0
 25 26  1  0  0  0
 25 30  1  0  0  0
 26 27  1  0  0  0
 27 28  1  0  0  0
 28 29  1  0  0  0
 29 30  1  0  0  0
M  END
> <minimizedAffinity>
-9.25190

$$$$
