CHEMBL3967596


 37 40  0  0  0  0  0  0  0  0999 V2000
  -14.5726   -0.6602  -14.2816 C   0  0  0  0  0  0  0  0  0  0  0  0
  -13.2684   -0.1659  -14.1727 C   0  0  0  0  0  0  0  0  0  0  0  0
  -12.3177   -0.8234  -13.3854 C   0  0  0  0  0  0  0  0  0  0  0  0
  -12.6627   -1.9794  -12.6875 C   0  0  0  0  0  0  0  0  0  0  0  0
  -13.9473   -2.5101  -12.8253 C   0  0  0  0  0  0  0  0  0  0  0  0
  -14.8948   -1.8314  -13.5911 C   0  0  0  0  0  0  0  0  0  0  0  0
  -16.1401   -2.3261  -13.6701 F   0  0  0  0  0  0  0  0  0  0  0  0
  -16.7365    0.9274  -13.2947 O   0  0  0  0  0  0  0  0  0  0  0  0
  -16.6480    0.6693  -14.4878 C   0  0  0  0  0  0  0  0  0  0  0  0
  -17.6085    1.0115  -15.4246 N   0  0  0  0  0  0  0  0  0  0  0  0
  -15.5863   -0.0170  -15.0400 N   0  0  0  0  0  0  0  0  0  0  0  0
  -17.5497    0.5580  -16.3250 H   0  0  0  0  0  0  0  0  0  0  0  0
  -15.3626    0.1606  -16.0113 H   0  0  0  0  0  0  0  0  0  0  0  0
  -18.8075    1.7013  -15.1137 C   0  0  0  0  0  0  0  0  0  0  0  0
  -18.9648    3.0843  -15.2108 C   0  0  0  0  0  0  0  0  0  0  0  0
  -20.0968    3.7565  -14.8811 N   0  0  0  0  0  0  0  0  0  0  0  0
  -21.1306    3.0239  -14.4284 C   0  0  0  0  0  0  0  0  0  0  0  0
  -21.0990    1.6433  -14.3059 C   0  0  0  0  0  0  0  0  0  0  0  0
  -19.9153    0.9744  -14.6704 C   0  0  0  0  0  0  0  0  0  0  0  0
  -22.2969    0.9154  -13.7824 C   0  0  0  0  0  0  0  0  0  0  0  0
  -23.3577    1.7269  -13.5151 F   0  0  0  0  0  0  0  0  0  0  0  0
  -22.7566   -0.0234  -14.6539 F   0  0  0  0  0  0  0  0  0  0  0  0
  -22.0353    0.2518  -12.6229 F   0  0  0  0  0  0  0  0  0  0  0  0
  -11.6645   -2.5529  -11.9303 O   0  0  0  0  0  0  0  0  0  0  0  0
  -11.9989   -3.4828  -10.9693 C   0  0  0  0  0  0  0  0  0  0  0  0
  -12.2767   -3.1601   -9.6455 C   0  0  0  0  0  0  0  0  0  0  0  0
  -12.6529   -4.1828   -8.8055 C   0  0  0  0  0  0  0  0  0  0  0  0
  -12.7105   -5.4696   -9.1884 N   0  0  0  0  0  0  0  0  0  0  0  0
  -12.3706   -5.7907  -10.4479 C   0  0  0  0  0  0  0  0  0  0  0  0
  -12.0027   -4.8205  -11.3721 C   0  0  0  0  0  0  0  0  0  0  0  0
  -12.3738   -7.1373  -10.8433 N   0  0  0  0  0  0  0  0  0  0  0  0
  -13.3269   -7.6893  -11.6729 C   0  0  0  0  0  0  0  0  0  0  0  0
  -14.2595   -7.1267  -12.2277 O   0  0  0  0  0  0  0  0  0  0  0  0
  -11.6476   -7.7338  -10.4781 H   0  0  0  0  0  0  0  0  0  0  0  0
  -13.1652   -9.1662  -11.8664 C   0  0  0  0  0  0  0  0  0  0  0  0
  -11.7878   -9.7543  -12.0874 C   0  0  0  0  0  0  0  0  0  0  0  0
  -12.7566   -9.6787  -13.2302 C   0  0  0  0  0  0  0  0  0  0  0  0
  8  9  2  0  0  0
  9 10  1  0  0  0
  9 11  1  0  0  0
 10 14  1  0  0  0
 10 12  1  0  0  0
 14 15  1  0  0  0
 14 19  2  0  0  0
 15 16  2  0  0  0
 16 17  1  0  0  0
 17 18  2  0  0  0
 18 20  1  0  0  0
 18 19  1  0  0  0
 20 21  1  0  0  0
 20 22  1  0  0  0
 20 23  1  0  0  0
 11  1  1  0  0  0
 11 13  1  0  0  0
  1  2  1  0  0  0
  1  6  2  0  0  0
  2  3  2  0  0  0
  3  4  1  0  0  0
  4 24  1  0  0  0
  4  5  2  0  0  0
 24 25  1  0  0  0
 25 26  1  0  0  0
 25 30  2  0  0  0
 26 27  2  0  0  0
 27 28  1  0  0  0
 28 29  2  0  0  0
 29 31  1  0  0  0
 29 30  1  0  0  0
 31 32  1  0  0  0
 31 34  1  0  0  0
 32 33  2  0  0  0
 32 35  1  0  0  0
 35 36  1  0  0  0
 35 37  1  0  0  0
 36 37  1  0  0  0
  5  6  1  0  0  0
  6  7  1  0  0  0
M  END
> <minimizedAffinity>
-9.52768

$$$$
