CHEMBL4649124


 31 34  0  0  0  0  0  0  0  0999 V2000
  -20.7178    1.1302  -14.6267 C   0  0  0  0  0  0  0  0  0  0  0  0
  -21.0177    1.2189  -15.8163 O   0  0  0  0  0  0  0  0  0  0  0  0
  -19.5090    1.5403  -14.0966 N   0  0  0  0  0  0  0  0  0  0  0  0
  -19.3468    1.6393  -13.1011 H   0  0  0  0  0  0  0  0  0  0  0  0
  -18.5139    2.0669  -14.9541 N   0  0  0  0  0  0  0  0  0  0  0  0
  -18.6093    3.4224  -15.2665 C   0  0  0  0  0  0  0  0  0  0  0  0
  -19.5198    4.1533  -14.8728 O   0  0  0  0  0  0  0  0  0  0  0  0
  -17.5723    3.9449  -16.0036 N   0  0  0  0  0  0  0  0  0  0  0  0
  -16.4416    3.2112  -16.3729 C   0  0  0  0  0  0  0  0  0  0  0  0
  -15.4012    3.8231  -17.0736 C   0  0  0  0  0  0  0  0  0  0  0  0
  -14.2489    3.0909  -17.3822 C   0  0  0  0  0  0  0  0  0  0  0  0
  -14.1503    1.7450  -17.0241 C   0  0  0  0  0  0  0  0  0  0  0  0
  -15.1948    1.1319  -16.3367 C   0  0  0  0  0  0  0  0  0  0  0  0
  -16.3261    1.8769  -15.9935 C   0  0  0  0  0  0  0  0  0  0  0  0
  -17.3696    1.2903  -15.1396 C   0  0  0  0  0  0  0  0  0  0  0  0
  -17.1512    0.2158  -14.5859 O   0  0  0  0  0  0  0  0  0  0  0  0
  -17.6421    4.9297  -16.2294 H   0  0  0  0  0  0  0  0  0  0  0  0
  -21.7014    0.6108  -13.5810 C   0  0  0  0  0  0  0  0  0  0  0  0
  -22.2262   -0.6676  -13.9249 O   0  0  0  0  0  0  0  0  0  0  0  0
  -28.6103   -2.1906  -13.3334 C   0  0  0  0  0  0  0  0  0  0  0  0
  -27.5300   -1.9157  -12.3280 C   0  0  0  0  0  0  0  0  0  0  0  0
  -27.7763   -1.9712  -11.0102 C   0  0  0  0  0  0  0  0  0  0  0  0
  -26.7582   -1.7149   -9.9803 C   0  0  0  0  0  0  0  0  0  0  0  0
  -27.0374   -1.7868   -8.7925 O   0  0  0  0  0  0  0  0  0  0  0  0
  -25.4880   -1.3976  -10.4291 O   0  0  0  0  0  0  0  0  0  0  0  0
  -25.1945   -1.3356  -11.8065 C   0  0  0  0  0  0  0  0  0  0  0  0
  -23.8713   -1.0195  -12.1325 C   0  0  0  0  0  0  0  0  0  0  0  0
  -23.4897   -0.9454  -13.4691 C   0  0  0  0  0  0  0  0  0  0  0  0
  -24.4521   -1.1824  -14.4555 C   0  0  0  0  0  0  0  0  0  0  0  0
  -25.7793   -1.4969  -14.1133 C   0  0  0  0  0  0  0  0  0  0  0  0
  -26.1685   -1.5834  -12.7731 C   0  0  0  0  0  0  0  0  0  0  0  0
 20 21  1  0  0  0
 21 22  2  0  0  0
 21 31  1  0  0  0
 22 23  1  0  0  0
 23 24  2  0  0  0
 23 25  1  0  0  0
 25 26  1  0  0  0
 26 27  1  0  0  0
 26 31  2  0  0  0
 27 28  2  0  0  0
 28 19  1  0  0  0
 28 29  1  0  0  0
 19 18  1  0  0  0
 18  1  1  0  0  0
  1  2  2  0  0  0
  1  3  1  0  0  0
  3  5  1  0  0  0
  3  4  1  0  0  0
  5  6  1  0  0  0
  5 15  1  0  0  0
  6  7  2  0  0  0
  6  8  1  0  0  0
  8  9  1  0  0  0
  8 17  1  0  0  0
  9 10  1  0  0  0
  9 14  2  0  0  0
 10 11  2  0  0  0
 11 12  1  0  0  0
 12 13  2  0  0  0
 13 14  1  0  0  0
 14 15  1  0  0  0
 15 16  2  0  0  0
 29 30  2  0  0  0
 30 31  1  0  0  0
M  END
> <minimizedAffinity>
-10.01470

$$$$
