CHEMBL3910713


 36 39  0  0  0  0  0  0  0  0999 V2000
  -25.7314   -1.5767  -12.2208 C   0  0  0  0  0  0  0  0  0  0  0  0
  -24.5110   -1.3844  -11.5650 C   0  0  0  0  0  0  0  0  0  0  0  0
  -23.3614   -1.0465  -12.2932 C   0  0  0  0  0  0  0  0  0  0  0  0
  -23.4225   -0.8935  -13.6821 C   0  0  0  0  0  0  0  0  0  0  0  0
  -24.6233   -1.1615  -14.3463 C   0  0  0  0  0  0  0  0  0  0  0  0
  -25.7631   -1.4883  -13.6127 C   0  0  0  0  0  0  0  0  0  0  0  0
  -26.9298   -1.6453  -14.2580 F   0  0  0  0  0  0  0  0  0  0  0  0
  -28.2198   -2.2465   -9.6545 N   0  0  0  0  0  0  0  0  0  0  0  0
  -26.9432   -2.0401  -10.1526 C   0  0  0  0  0  0  0  0  0  0  0  0
  -25.9220   -2.0113   -9.4764 O   0  0  0  0  0  0  0  0  0  0  0  0
  -26.9437   -1.8292  -11.5239 N   0  0  0  0  0  0  0  0  0  0  0  0
  -28.9321   -2.4786  -10.3318 H   0  0  0  0  0  0  0  0  0  0  0  0
  -27.7503   -1.3305  -11.8802 H   0  0  0  0  0  0  0  0  0  0  0  0
  -29.2029   -2.4399   -5.5264 C   0  0  0  0  0  0  0  0  0  0  0  0
  -29.4998   -3.5147   -6.3646 C   0  0  0  0  0  0  0  0  0  0  0  0
  -29.1784   -3.4618   -7.7238 C   0  0  0  0  0  0  0  0  0  0  0  0
  -28.5668   -2.3356   -8.2835 C   0  0  0  0  0  0  0  0  0  0  0  0
  -28.2639   -1.2595   -7.4397 C   0  0  0  0  0  0  0  0  0  0  0  0
  -28.5821   -1.3112   -6.0706 C   0  0  0  0  0  0  0  0  0  0  0  0
  -28.1752    0.0581   -5.0959 Cl  0  0  0  0  0  0  0  0  0  0  0  0
  -29.7695   -2.6432   -3.0041 N   0  0  0  0  0  0  0  0  0  0  0  0
  -29.5426   -2.5456   -4.1378 C   0  0  0  0  0  0  0  0  0  0  0  0
  -22.2513   -0.5199  -14.3170 O   0  0  0  0  0  0  0  0  0  0  0  0
  -21.9103    0.8185  -14.3786 C   0  0  0  0  0  0  0  0  0  0  0  0
  -22.6507    1.8178  -13.7567 C   0  0  0  0  0  0  0  0  0  0  0  0
  -22.2625    3.1211  -13.9651 C   0  0  0  0  0  0  0  0  0  0  0  0
  -21.1737    3.4656  -14.6739 N   0  0  0  0  0  0  0  0  0  0  0  0
  -20.4003    2.5006  -15.1969 C   0  0  0  0  0  0  0  0  0  0  0  0
  -20.7372    1.1549  -15.0687 C   0  0  0  0  0  0  0  0  0  0  0  0
  -19.2337    2.8652  -15.8987 N   0  0  0  0  0  0  0  0  0  0  0  0
  -17.9529    2.6637  -15.4134 C   0  0  0  0  0  0  0  0  0  0  0  0
  -17.6349    2.1240  -14.3599 O   0  0  0  0  0  0  0  0  0  0  0  0
  -19.3459    3.2809  -16.8083 H   0  0  0  0  0  0  0  0  0  0  0  0
  -16.8226    3.1560  -16.2612 C   0  0  0  0  0  0  0  0  0  0  0  0
  -15.3709    3.2700  -15.8739 C   0  0  0  0  0  0  0  0  0  0  0  0
  -16.2090    4.5106  -15.9918 C   0  0  0  0  0  0  0  0  0  0  0  0
 21 22  3  0  0  0
 22 14  1  0  0  0
 14 15  1  0  0  0
 14 19  2  0  0  0
 15 16  2  0  0  0
 16 17  1  0  0  0
 17  8  1  0  0  0
 17 18  2  0  0  0
  8  9  1  0  0  0
  8 12  1  0  0  0
  9 10  2  0  0  0
  9 11  1  0  0  0
 11  1  1  0  0  0
 11 13  1  0  0  0
  1  2  1  0  0  0
  1  6  2  0  0  0
  2  3  2  0  0  0
  3  4  1  0  0  0
  4 23  1  0  0  0
  4  5  2  0  0  0
 23 24  1  0  0  0
 24 25  1  0  0  0
 24 29  2  0  0  0
 25 26  2  0  0  0
 26 27  1  0  0  0
 27 28  2  0  0  0
 28 30  1  0  0  0
 28 29  1  0  0  0
 30 31  1  0  0  0
 30 33  1  0  0  0
 31 32  2  0  0  0
 31 34  1  0  0  0
 34 35  1  0  0  0
 34 36  1  0  0  0
 35 36  1  0  0  0
  5  6  1  0  0  0
  6  7  1  0  0  0
 18 19  1  0  0  0
 19 20  1  0  0  0
M  END
> <minimizedAffinity>
-10.80660

$$$$
