CHEMBL3690435


 40 42  0  0  0  0  0  0  0  0999 V2000
  -13.8644   -1.6681  -13.4560 C   0  0  0  0  0  0  0  0  0  0  0  0
  -15.2307   -1.4768  -12.9681 C   0  0  0  0  0  0  0  0  0  0  0  0
  -16.0597   -0.6407  -13.6115 C   0  0  0  0  0  0  0  0  0  0  0  0
  -15.6123    0.0796  -14.7242 N   0  0  0  0  0  0  0  0  0  0  0  0
  -16.2434    1.0377  -15.5240 C   0  0  0  0  0  0  0  0  0  0  0  0
  -15.2920    1.3313  -16.4907 C   0  0  0  0  0  0  0  0  0  0  0  0
  -14.1226    0.6445  -16.3022 N   0  0  0  0  0  0  0  0  0  0  0  0
  -14.3219   -0.0851  -15.2287 C   0  0  0  0  0  0  0  0  0  0  0  0
  -13.4477   -0.9877  -14.5499 C   0  0  0  0  0  0  0  0  0  0  0  0
  -17.5808    1.6280  -15.3268 C   0  0  0  0  0  0  0  0  0  0  0  0
  -17.7534    3.0166  -15.3626 C   0  0  0  0  0  0  0  0  0  0  0  0
  -19.0002    3.5918  -15.1656 C   0  0  0  0  0  0  0  0  0  0  0  0
  -20.1187    2.7824  -15.0134 C   0  0  0  0  0  0  0  0  0  0  0  0
  -20.0160    1.3902  -15.0634 C   0  0  0  0  0  0  0  0  0  0  0  0
  -18.7337    0.8196  -15.1824 C   0  0  0  0  0  0  0  0  0  0  0  0
  -21.1584    0.5450  -15.0214 N   0  0  0  0  0  0  0  0  0  0  0  0
  -21.9960    0.3808  -13.9384 C   0  0  0  0  0  0  0  0  0  0  0  0
  -21.9013    0.9316  -12.8451 O   0  0  0  0  0  0  0  0  0  0  0  0
  -22.9918   -0.5436  -14.1435 N   0  0  0  0  0  0  0  0  0  0  0  0
  -21.4052    0.0639  -15.8741 H   0  0  0  0  0  0  0  0  0  0  0  0
  -23.3278   -0.6784  -15.0855 H   0  0  0  0  0  0  0  0  0  0  0  0
  -23.9348   -0.7898  -13.0366 C   0  0  0  0  0  0  0  0  0  0  0  0
  -23.6842   -2.0409  -12.1804 C   0  0  0  0  0  0  0  0  0  0  0  0
  -22.7941   -1.8157  -11.1877 F   0  0  0  0  0  0  0  0  0  0  0  0
  -24.8420   -2.4287  -11.5865 F   0  0  0  0  0  0  0  0  0  0  0  0
  -23.2445   -3.0862  -12.9120 F   0  0  0  0  0  0  0  0  0  0  0  0
  -12.9743   -2.6597  -12.7274 C   0  0  0  0  0  0  0  0  0  0  0  0
  -11.8644   -3.1148  -13.6521 C   0  0  0  0  0  0  0  0  0  0  0  0
  -11.1415   -4.1694  -13.4422 N   0  0  0  0  0  0  0  0  0  0  0  0
  -11.4193   -4.6506  -12.5803 H   0  0  0  0  0  0  0  0  0  0  0  0
  -14.1897   -4.7939  -12.8820 N   0  0  0  0  0  0  0  0  0  0  0  0
  -13.8234   -3.7834  -12.1656 C   0  0  0  0  0  0  0  0  0  0  0  0
  -14.4044   -6.1974  -10.9100 C   0  0  0  0  0  0  0  0  0  0  0  0
  -15.0837   -5.7881  -12.2247 C   0  0  0  0  0  0  0  0  0  0  0  0
  -16.4545   -5.1780  -11.9001 C   0  0  0  0  0  0  0  0  0  0  0  0
  -15.2439   -7.0205  -13.1504 C   0  0  0  0  0  0  0  0  0  0  0  0
  -16.0203   -6.8457  -14.2630 N   0  0  0  0  0  0  0  0  0  0  0  0
  -14.7643   -8.1203  -12.9130 O   0  0  0  0  0  0  0  0  0  0  0  0
  -16.6200   -6.0335  -14.3547 H   0  0  0  0  0  0  0  0  0  0  0  0
  -16.2332   -7.6805  -14.7969 H   0  0  0  0  0  0  0  0  0  0  0  0
 33 34  1  0  0  0
 34 35  1  0  0  0
 34 31  1  0  0  0
 34 36  1  0  0  0
 31 32  2  0  0  0
 32 27  1  0  0  0
 27 28  1  0  0  0
 27  1  1  0  0  0
 28 29  2  0  0  0
 29 30  1  0  0  0
  1  2  1  0  0  0
  1  9  2  0  0  0
  2  3  2  0  0  0
  3  4  1  0  0  0
  4  5  1  0  0  0
  4  8  1  0  0  0
  5 10  1  0  0  0
  5  6  2  0  0  0
 10 11  1  0  0  0
 10 15  2  0  0  0
 11 12  2  0  0  0
 12 13  1  0  0  0
 13 14  2  0  0  0
 14 16  1  0  0  0
 14 15  1  0  0  0
 16 17  1  0  0  0
 16 20  1  0  0  0
 17 18  2  0  0  0
 17 19  1  0  0  0
 19 22  1  0  0  0
 19 21  1  0  0  0
 22 23  1  0  0  0
 23 24  1  0  0  0
 23 25  1  0  0  0
 23 26  1  0  0  0
  6  7  1  0  0  0
  7  8  2  0  0  0
  8  9  1  0  0  0
 36 37  1  0  0  0
 36 38  2  0  0  0
 37 39  1  0  0  0
 37 40  1  0  0  0
M  END
> <minimizedAffinity>
-9.47822

$$$$
