CHEMBL1091199


 33 37  0  0  0  0  0  0  0  0999 V2000
  -29.2895   -6.9991   -6.1440 C   0  0  0  0  0  0  0  0  0  0  0  0
  -29.6200   -6.6027   -4.9033 C   0  0  0  0  0  0  0  0  0  0  0  0
  -29.5719   -5.2345   -4.5603 C   0  0  0  0  0  0  0  0  0  0  0  0
  -29.7799   -4.5734   -3.3545 C   0  0  0  0  0  0  0  0  0  0  0  0
  -29.5335   -3.2709   -3.4662 N   0  0  0  0  0  0  0  0  0  0  0  0
  -29.2285   -3.0640   -4.7844 N   0  0  0  0  0  0  0  0  0  0  0  0
  -29.1777   -4.2836   -5.4776 C   0  0  0  0  0  0  0  0  0  0  0  0
  -28.7655   -4.6195   -6.7800 N   0  0  0  0  0  0  0  0  0  0  0  0
  -28.1498   -3.7568   -7.7659 C   0  0  0  0  0  0  0  0  0  0  0  0
  -28.8816   -5.9704   -7.1749 C   0  0  0  0  0  0  0  0  0  0  0  0
  -28.6392   -6.3402   -8.3267 O   0  0  0  0  0  0  0  0  0  0  0  0
  -29.1440   -1.7185   -5.2307 C   0  0  0  0  0  0  0  0  0  0  0  0
  -30.2908   -0.9273   -5.3747 C   0  0  0  0  0  0  0  0  0  0  0  0
  -30.1789    0.3945   -5.8166 C   0  0  0  0  0  0  0  0  0  0  0  0
  -28.9222    0.9397   -6.0569 C   0  0  0  0  0  0  0  0  0  0  0  0
  -28.8234    2.2131   -6.4585 F   0  0  0  0  0  0  0  0  0  0  0  0
  -27.7721    0.1878   -5.8760 C   0  0  0  0  0  0  0  0  0  0  0  0
  -27.8862   -1.1380   -5.4652 C   0  0  0  0  0  0  0  0  0  0  0  0
  -26.7519   -1.8478   -5.3684 F   0  0  0  0  0  0  0  0  0  0  0  0
  -31.7173   -8.4595   -7.1106 C   0  0  0  0  0  0  0  0  0  0  0  0
  -30.3876   -9.1403   -6.9242 C   0  0  0  0  0  0  0  0  0  0  0  0
  -30.2669  -10.5105   -7.2152 C   0  0  0  0  0  0  0  0  0  0  0  0
  -29.0395  -11.1732   -7.0913 C   0  0  0  0  0  0  0  0  0  0  0  0
  -27.9068  -10.4697   -6.6760 C   0  0  0  0  0  0  0  0  0  0  0  0
  -28.0242   -9.1096   -6.3567 C   0  0  0  0  0  0  0  0  0  0  0  0
  -29.2515   -8.4338   -6.4791 C   0  0  0  0  0  0  0  0  0  0  0  0
  -26.5680  -11.1120   -6.5162 C   0  0  0  0  0  0  0  0  0  0  0  0
  -26.5004  -12.3209   -6.3281 O   0  0  0  0  0  0  0  0  0  0  0  0
  -25.4591  -10.2847   -6.5729 N   0  0  0  0  0  0  0  0  0  0  0  0
  -25.5739   -9.2836   -6.6503 H   0  0  0  0  0  0  0  0  0  0  0  0
  -24.1334  -10.8001   -6.4017 C   0  0  0  0  0  0  0  0  0  0  0  0
  -23.4409  -10.7268   -5.0673 C   0  0  0  0  0  0  0  0  0  0  0  0
  -22.9587   -9.8793   -6.2067 C   0  0  0  0  0  0  0  0  0  0  0  0
 20 21  1  0  0  0
 21 22  1  0  0  0
 21 26  2  0  0  0
 22 23  2  0  0  0
 23 24  1  0  0  0
 24 27  1  0  0  0
 24 25  2  0  0  0
 27 28  2  0  0  0
 27 29  1  0  0  0
 29 31  1  0  0  0
 29 30  1  0  0  0
 31 32  1  0  0  0
 31 33  1  0  0  0
 32 33  1  0  0  0
 25 26  1  0  0  0
 26  1  1  0  0  0
  1  2  2  0  0  0
  1 10  1  0  0  0
  2  3  1  0  0  0
  3  4  1  0  0  0
  3  7  2  0  0  0
  4  5  2  0  0  0
  5  6  1  0  0  0
  6 12  1  0  0  0
  6  7  1  0  0  0
 12 13  1  0  0  0
 12 18  2  0  0  0
 13 14  2  0  0  0
 14 15  1  0  0  0
 15 16  1  0  0  0
 15 17  2  0  0  0
 17 18  1  0  0  0
 18 19  1  0  0  0
  7  8  1  0  0  0
  8  9  1  0  0  0
  8 10  1  0  0  0
 10 11  2  0  0  0
M  END
> <minimizedAffinity>
-8.56382

$$$$
