CHEMBL3828122


 40 45  0  0  0  0  0  0  0  0999 V2000
  -30.4984   -6.5410   -6.4307 C   0  0  0  0  0  0  0  0  0  0  0  0
  -30.9897   -6.3994   -5.1294 C   0  0  0  0  0  0  0  0  0  0  0  0
  -30.9160   -5.1827   -4.4368 C   0  0  0  0  0  0  0  0  0  0  0  0
  -30.2962   -4.1189   -5.0957 C   0  0  0  0  0  0  0  0  0  0  0  0
  -30.0364   -2.8301   -4.7115 N   0  0  0  0  0  0  0  0  0  0  0  0
  -29.3479   -2.1075   -5.6164 N   0  0  0  0  0  0  0  0  0  0  0  0
  -29.1985   -2.9605   -6.6423 C   0  0  0  0  0  0  0  0  0  0  0  0
  -29.7771   -4.2284   -6.3790 C   0  0  0  0  0  0  0  0  0  0  0  0
  -29.8817   -5.4573   -7.0626 C   0  0  0  0  0  0  0  0  0  0  0  0
  -30.2837   -2.3901   -3.8324 H   0  0  0  0  0  0  0  0  0  0  0  0
  -28.4556   -2.5787   -7.8762 C   0  0  0  0  0  0  0  0  0  0  0  0
  -27.2403   -2.0692   -7.9261 N   0  0  0  0  0  0  0  0  0  0  0  0
  -27.0046   -1.8269   -9.2575 C   0  0  0  0  0  0  0  0  0  0  0  0
  -25.8701   -1.2893   -9.8840 C   0  0  0  0  0  0  0  0  0  0  0  0
  -25.8506   -1.0898  -11.2790 C   0  0  0  0  0  0  0  0  0  0  0  0
  -27.0069   -1.4369  -12.0012 C   0  0  0  0  0  0  0  0  0  0  0  0
  -28.1497   -1.9965  -11.4069 C   0  0  0  0  0  0  0  0  0  0  0  0
  -28.1007   -2.1814  -10.0304 C   0  0  0  0  0  0  0  0  0  0  0  0
  -28.9948   -2.6946   -9.1307 N   0  0  0  0  0  0  0  0  0  0  0  0
  -29.9192   -3.0536   -9.3174 H   0  0  0  0  0  0  0  0  0  0  0  0
  -24.7289   -0.5767  -11.9026 N   0  0  0  0  0  0  0  0  0  0  0  0
  -24.7931    0.3598  -13.0286 C   0  0  0  0  0  0  0  0  0  0  0  0
  -24.0535   -0.1766  -14.2836 C   0  0  0  0  0  0  0  0  0  0  0  0
  -24.9321   -1.0933  -15.1365 C   0  0  0  0  0  0  0  0  0  0  0  0
  -22.7219   -0.7770  -14.0193 N   0  0  0  0  0  0  0  0  0  0  0  0
  -22.7095   -1.6781  -12.8382 C   0  0  0  0  0  0  0  0  0  0  0  0
  -23.2574   -3.0727  -13.1581 C   0  0  0  0  0  0  0  0  0  0  0  0
  -23.3871   -1.0777  -11.5763 C   0  0  0  0  0  0  0  0  0  0  0  0
  -22.0955   -0.0023  -13.7937 H   0  0  0  0  0  0  0  0  0  0  0  0
  -30.6336   -7.7951   -6.9649 O   0  0  0  0  0  0  0  0  0  0  0  0
  -29.3839   -9.2062   -8.5262 C   0  0  0  0  0  0  0  0  0  0  0  0
  -29.4563   -8.6041   -7.1181 C   0  0  0  0  0  0  0  0  0  0  0  0
  -29.4623   -9.6581   -6.0158 C   0  0  0  0  0  0  0  0  0  0  0  0
  -28.6524   -9.5091   -4.8683 C   0  0  0  0  0  0  0  0  0  0  0  0
  -27.5806   -8.1764   -4.6150 Cl  0  0  0  0  0  0  0  0  0  0  0  0
  -28.6885  -10.4804   -3.8680 C   0  0  0  0  0  0  0  0  0  0  0  0
  -29.4519  -11.5913   -3.9134 N   0  0  0  0  0  0  0  0  0  0  0  0
  -30.2241  -11.7258   -5.0126 C   0  0  0  0  0  0  0  0  0  0  0  0
  -30.2710  -10.8100   -6.0651 C   0  0  0  0  0  0  0  0  0  0  0  0
  -31.3506  -11.1755   -7.3613 Cl  0  0  0  0  0  0  0  0  0  0  0  0
 31 32  1  0  0  0
 32 30  1  0  0  0
 32 33  1  0  0  0
 30  1  1  0  0  0
  1  2  1  0  0  0
  1  9  2  0  0  0
  2  3  2  0  0  0
  3  4  1  0  0  0
  4  5  1  0  0  0
  4  8  2  0  0  0
  5  6  1  0  0  0
  5 10  1  0  0  0
  6  7  2  0  0  0
  7 11  1  0  0  0
  7  8  1  0  0  0
 11 12  2  0  0  0
 11 19  1  0  0  0
 12 13  1  0  0  0
 13 14  1  0  0  0
 13 18  2  0  0  0
 14 15  2  0  0  0
 15 21  1  0  0  0
 15 16  1  0  0  0
 21 22  1  0  0  0
 21 28  1  0  0  0
 22 23  1  0  0  0
 23 25  1  0  0  0
 23 24  1  0  0  0
 25 26  1  0  0  0
 25 29  1  0  0  0
 26 28  1  0  0  0
 26 27  1  0  0  0
 16 17  2  0  0  0
 17 18  1  0  0  0
 18 19  1  0  0  0
 19 20  1  0  0  0
  8  9  1  0  0  0
 33 34  1  0  0  0
 33 39  2  0  0  0
 34 35  1  0  0  0
 34 36  2  0  0  0
 36 37  1  0  0  0
 37 38  2  0  0  0
 38 39  1  0  0  0
 39 40  1  0  0  0
M  END
> <minimizedAffinity>
-7.67908

$$$$
