CHEMBL3919501


 28 31  0  0  0  0  0  0  0  0999 V2000
  -28.4806   -2.7347   -7.0707 C   0  0  0  0  0  0  0  0  0  0  0  0
  -29.2056   -3.9347   -7.1432 C   0  0  0  0  0  0  0  0  0  0  0  0
  -29.3158   -4.8032   -6.0299 C   0  0  0  0  0  0  0  0  0  0  0  0
  -29.9584   -6.0479   -6.0204 C   0  0  0  0  0  0  0  0  0  0  0  0
  -30.0796   -6.7868   -4.9055 N   0  0  0  0  0  0  0  0  0  0  0  0
  -29.5279   -6.3044   -3.7951 C   0  0  0  0  0  0  0  0  0  0  0  0
  -28.8505   -5.1612   -3.7005 N   0  0  0  0  0  0  0  0  0  0  0  0
  -28.7565   -4.4297   -4.8114 C   0  0  0  0  0  0  0  0  0  0  0  0
  -28.0820   -3.2369   -4.7377 C   0  0  0  0  0  0  0  0  0  0  0  0
  -27.9343   -2.3558   -5.8288 C   0  0  0  0  0  0  0  0  0  0  0  0
  -27.4105   -2.3967   -9.1870 C   0  0  0  0  0  0  0  0  0  0  0  0
  -28.2798   -1.9202   -8.1554 O   0  0  0  0  0  0  0  0  0  0  0  0
  -30.4812   -6.5667   -7.2409 N   0  0  0  0  0  0  0  0  0  0  0  0
  -30.5751   -5.8037   -7.9065 H   0  0  0  0  0  0  0  0  0  0  0  0
  -29.9943   -7.7543   -7.8245 C   0  0  0  0  0  0  0  0  0  0  0  0
  -28.7058   -7.7797   -8.3773 C   0  0  0  0  0  0  0  0  0  0  0  0
  -28.2363   -8.9048   -9.0485 C   0  0  0  0  0  0  0  0  0  0  0  0
  -29.0482  -10.0317   -9.1610 C   0  0  0  0  0  0  0  0  0  0  0  0
  -28.4303  -11.3725  -10.0558 Cl  0  0  0  0  0  0  0  0  0  0  0  0
  -30.3187  -10.0370   -8.5716 C   0  0  0  0  0  0  0  0  0  0  0  0
  -31.3707  -11.4056   -8.6628 Cl  0  0  0  0  0  0  0  0  0  0  0  0
  -30.7866   -8.9033   -7.8964 C   0  0  0  0  0  0  0  0  0  0  0  0
  -27.2841   -1.1310   -5.6905 O   0  0  0  0  0  0  0  0  0  0  0  0
  -27.8398   -0.3279   -4.6261 C   0  0  0  0  0  0  0  0  0  0  0  0
  -28.6190    0.8931   -5.0778 C   0  0  0  0  0  0  0  0  0  0  0  0
  -30.1193    0.4921   -5.2556 C   0  0  0  0  0  0  0  0  0  0  0  0
  -30.1697    1.4244   -6.4719 C   0  0  0  0  0  0  0  0  0  0  0  0
  -28.6394    1.2513   -6.5888 C   0  0  0  0  0  0  0  0  0  0  0  0
 11 12  1  0  0  0
 12  1  1  0  0  0
  1  2  1  0  0  0
  1 10  2  0  0  0
  2  3  2  0  0  0
  3  4  1  0  0  0
  3  8  1  0  0  0
  4 13  1  0  0  0
  4  5  2  0  0  0
 13 15  1  0  0  0
 13 14  1  0  0  0
 15 16  1  0  0  0
 15 22  2  0  0  0
 16 17  2  0  0  0
 17 18  1  0  0  0
 18 19  1  0  0  0
 18 20  2  0  0  0
 20 21  1  0  0  0
 20 22  1  0  0  0
  5  6  1  0  0  0
  6  7  2  0  0  0
  7  8  1  0  0  0
  8  9  2  0  0  0
  9 10  1  0  0  0
 10 23  1  0  0  0
 23 24  1  0  0  0
 24 25  1  0  0  0
 25 26  1  0  0  0
 25 28  1  0  0  0
 26 27  1  0  0  0
 27 28  1  0  0  0
M  END
> <minimizedAffinity>
-8.70976

$$$$
