CHEMBL4212117


 43 46  0  0  0  0  0  0  0  0999 V2000
  -23.7785   -0.5732  -12.4621 C   0  0  0  0  0  0  0  0  0  0  0  0
  -22.7139   -0.9987  -13.2730 C   0  0  0  0  0  0  0  0  0  0  0  0
  -21.8944   -0.0963  -13.9398 C   0  0  0  0  0  0  0  0  0  0  0  0
  -22.1464    1.2673  -13.8356 C   0  0  0  0  0  0  0  0  0  0  0  0
  -23.2775    1.7100  -13.1362 C   0  0  0  0  0  0  0  0  0  0  0  0
  -24.0873    0.7908  -12.4490 C   0  0  0  0  0  0  0  0  0  0  0  0
  -21.1548    2.1850  -14.4515 C   0  0  0  0  0  0  0  0  0  0  0  0
  -21.4780    3.3246  -14.7676 O   0  0  0  0  0  0  0  0  0  0  0  0
  -19.9047    1.6567  -14.6948 N   0  0  0  0  0  0  0  0  0  0  0  0
  -19.7223    0.6812  -14.5073 H   0  0  0  0  0  0  0  0  0  0  0  0
  -18.8939    2.4316  -15.3797 C   0  0  0  0  0  0  0  0  0  0  0  0
  -17.6215    1.6157  -15.5785 C   0  0  0  0  0  0  0  0  0  0  0  0
  -17.4734    0.5524  -14.4937 C   0  0  0  0  0  0  0  0  0  0  0  0
  -16.0391    0.4904  -13.9677 C   0  0  0  0  0  0  0  0  0  0  0  0
  -15.9709   -0.3145  -12.6704 C   0  0  0  0  0  0  0  0  0  0  0  0
  -15.1864   -1.6123  -12.8481 C   0  0  0  0  0  0  0  0  0  0  0  0
  -15.4749   -2.5938  -11.7330 C   0  0  0  0  0  0  0  0  0  0  0  0
  -14.9866   -2.5378  -10.6080 O   0  0  0  0  0  0  0  0  0  0  0  0
  -16.3483   -3.5913  -12.0882 N   0  0  0  0  0  0  0  0  0  0  0  0
  -16.6901   -4.5134  -11.0751 O   0  0  0  0  0  0  0  0  0  0  0  0
  -16.8649   -3.6374  -12.9589 H   0  0  0  0  0  0  0  0  0  0  0  0
  -16.1616   -4.1877  -10.3119 H   0  0  0  0  0  0  0  0  0  0  0  0
  -24.3905   -1.4588  -11.5627 N   0  0  0  0  0  0  0  0  0  0  0  0
  -23.8793   -2.2474  -11.2028 H   0  0  0  0  0  0  0  0  0  0  0  0
  -27.3907   -1.7184   -9.5874 C   0  0  0  0  0  0  0  0  0  0  0  0
  -28.3545   -1.7718  -10.5691 C   0  0  0  0  0  0  0  0  0  0  0  0
  -27.9260   -1.6161  -11.8722 C   0  0  0  0  0  0  0  0  0  0  0  0
  -26.6378   -1.4799  -12.2363 N   0  0  0  0  0  0  0  0  0  0  0  0
  -25.7503   -1.5125  -11.2418 C   0  0  0  0  0  0  0  0  0  0  0  0
  -26.1088   -1.5795   -9.9497 N   0  0  0  0  0  0  0  0  0  0  0  0
  -27.6913   -1.7676   -8.2051 N   0  0  0  0  0  0  0  0  0  0  0  0
  -27.5543   -0.5040   -7.4816 C   0  0  0  0  0  0  0  0  0  0  0  0
  -31.2379   -6.1890   -4.5193 C   0  0  0  0  0  0  0  0  0  0  0  0
  -30.3705   -5.9256   -5.6873 C   0  0  0  0  0  0  0  0  0  0  0  0
  -29.7333   -4.7983   -6.1522 C   0  0  0  0  0  0  0  0  0  0  0  0
  -29.7703   -3.5436   -5.5582 C   0  0  0  0  0  0  0  0  0  0  0  0
  -29.0336   -2.6054   -6.3157 C   0  0  0  0  0  0  0  0  0  0  0  0
  -28.3191   -2.8712   -7.5475 C   0  0  0  0  0  0  0  0  0  0  0  0
  -28.2982   -4.1900   -8.0800 C   0  0  0  0  0  0  0  0  0  0  0  0
  -29.0379   -5.1534   -7.3591 C   0  0  0  0  0  0  0  0  0  0  0  0
  -29.2440   -6.4558   -7.6172 N   0  0  0  0  0  0  0  0  0  0  0  0
  -30.0312   -6.8927   -6.6089 N   0  0  0  0  0  0  0  0  0  0  0  0
  -30.4464   -8.2752   -6.5925 C   0  0  0  0  0  0  0  0  0  0  0  0
 33 34  1  0  0  0
 34 35  2  0  0  0
 34 42  1  0  0  0
 35 36  1  0  0  0
 35 40  1  0  0  0
 36 37  2  0  0  0
 37 38  1  0  0  0
 38 31  1  0  0  0
 38 39  2  0  0  0
 31 32  1  0  0  0
 31 25  1  0  0  0
 25 26  1  0  0  0
 25 30  2  0  0  0
 26 27  2  0  0  0
 27 28  1  0  0  0
 28 29  2  0  0  0
 29 23  1  0  0  0
 29 30  1  0  0  0
 23  1  1  0  0  0
 23 24  1  0  0  0
  1  2  1  0  0  0
  1  6  2  0  0  0
  2  3  2  0  0  0
  3  4  1  0  0  0
  4  7  1  0  0  0
  4  5  2  0  0  0
  7  8  2  0  0  0
  7  9  1  0  0  0
  9 11  1  0  0  0
  9 10  1  0  0  0
 11 12  1  0  0  0
 12 13  1  0  0  0
 13 14  1  0  0  0
 14 15  1  0  0  0
 15 16  1  0  0  0
 16 17  1  0  0  0
 17 18  2  0  0  0
 17 19  1  0  0  0
 19 20  1  0  0  0
 19 21  1  0  0  0
 20 22  1  0  0  0
  5  6  1  0  0  0
 39 40  1  0  0  0
 40 41  2  0  0  0
 41 42  1  0  0  0
 42 43  1  0  0  0
M  END
> <minimizedAffinity>
-10.22837

$$$$
