CHEMBL1794062


 21 23  0  0  0  0  0  0  0  0999 V2000
  -27.3509   -1.8311   -9.2283 C   0  0  0  0  0  0  0  0  0  0  0  0
  -28.2336   -1.6960  -10.2372 N   0  0  0  0  0  0  0  0  0  0  0  0
  -27.4621   -1.4433  -11.3127 C   0  0  0  0  0  0  0  0  0  0  0  0
  -26.1421   -1.4026  -10.9029 C   0  0  0  0  0  0  0  0  0  0  0  0
  -26.1138   -1.6469   -9.6176 O   0  0  0  0  0  0  0  0  0  0  0  0
  -24.9330   -1.1080  -11.7022 C   0  0  0  0  0  0  0  0  0  0  0  0
  -24.0922   -2.1320  -12.1771 C   0  0  0  0  0  0  0  0  0  0  0  0
  -22.9736   -1.8202  -12.9560 C   0  0  0  0  0  0  0  0  0  0  0  0
  -22.6853   -0.4895  -13.2721 C   0  0  0  0  0  0  0  0  0  0  0  0
  -23.5096    0.5335  -12.8005 C   0  0  0  0  0  0  0  0  0  0  0  0
  -24.6250    0.2285  -12.0183 C   0  0  0  0  0  0  0  0  0  0  0  0
  -27.7391   -2.1205   -7.8869 N   0  0  0  0  0  0  0  0  0  0  0  0
  -27.7861   -3.1155   -7.6256 H   0  0  0  0  0  0  0  0  0  0  0  0
  -27.6952   -1.4407   -5.5132 C   0  0  0  0  0  0  0  0  0  0  0  0
  -27.8615   -0.4440   -4.5250 C   0  0  0  0  0  0  0  0  0  0  0  0
  -28.2848    0.8376   -4.8703 C   0  0  0  0  0  0  0  0  0  0  0  0
  -28.5585    1.1457   -6.1978 C   0  0  0  0  0  0  0  0  0  0  0  0
  -28.4071    0.1776   -7.1855 C   0  0  0  0  0  0  0  0  0  0  0  0
  -27.9706   -1.1304   -6.8692 C   0  0  0  0  0  0  0  0  0  0  0  0
  -27.9763   -3.6116   -4.4342 C   0  0  0  0  0  0  0  0  0  0  0  0
  -27.2715   -2.6932   -5.1917 O   0  0  0  0  0  0  0  0  0  0  0  0
 20 21  1  0  0  0
 21 14  1  0  0  0
 14 15  1  0  0  0
 14 19  2  0  0  0
 15 16  2  0  0  0
 16 17  1  0  0  0
 17 18  2  0  0  0
 18 19  1  0  0  0
 19 12  1  0  0  0
 12  1  1  0  0  0
 12 13  1  0  0  0
  1  2  2  0  0  0
  1  5  1  0  0  0
  2  3  1  0  0  0
  3  4  2  0  0  0
  4  6  1  0  0  0
  4  5  1  0  0  0
  6  7  1  0  0  0
  6 11  2  0  0  0
  7  8  2  0  0  0
  8  9  1  0  0  0
  9 10  2  0  0  0
 10 11  1  0  0  0
M  END
> <minimizedAffinity>
-8.69829

$$$$
