CHEMBL3740574


 40 44  0  0  0  0  0  0  0  0999 V2000
  -23.6511   -1.5879  -11.4668 O   0  0  0  0  0  0  0  0  0  0  0  0
  -23.0115   -0.8166  -12.4035 C   0  0  0  0  0  0  0  0  0  0  0  0
  -22.9599   -1.2941  -13.7118 C   0  0  0  0  0  0  0  0  0  0  0  0
  -22.1746   -0.6248  -14.6547 C   0  0  0  0  0  0  0  0  0  0  0  0
  -21.5339    0.5810  -14.3155 C   0  0  0  0  0  0  0  0  0  0  0  0
  -20.7459    1.3443  -15.1913 C   0  0  0  0  0  0  0  0  0  0  0  0
  -21.4053    2.5073  -15.5410 C   0  0  0  0  0  0  0  0  0  0  0  0
  -21.9729    3.2325  -14.4979 C   0  0  0  0  0  0  0  0  0  0  0  0
  -22.1059    2.6204  -13.2371 C   0  0  0  0  0  0  0  0  0  0  0  0
  -22.0053    1.2244  -13.1655 C   0  0  0  0  0  0  0  0  0  0  0  0
  -22.5688    0.4739  -12.1250 C   0  0  0  0  0  0  0  0  0  0  0  0
  -19.3321    1.6901  -14.5852 C   0  0  0  0  0  0  0  0  0  0  0  0
  -19.1358    2.7582  -14.0215 O   0  0  0  0  0  0  0  0  0  0  0  0
  -18.3601    0.6809  -14.7459 N   0  0  0  0  0  0  0  0  0  0  0  0
  -18.6889   -0.1955  -15.1307 H   0  0  0  0  0  0  0  0  0  0  0  0
  -16.9565    0.7461  -14.5406 C   0  0  0  0  0  0  0  0  0  0  0  0
  -16.3105    0.4956  -13.3262 C   0  0  0  0  0  0  0  0  0  0  0  0
  -14.9113    0.5821  -13.2342 C   0  0  0  0  0  0  0  0  0  0  0  0
  -14.1431    0.9193  -14.3509 C   0  0  0  0  0  0  0  0  0  0  0  0
  -14.7793    1.1915  -15.5550 C   0  0  0  0  0  0  0  0  0  0  0  0
  -16.1664    1.1115  -15.6449 C   0  0  0  0  0  0  0  0  0  0  0  0
  -26.9101   -1.4450  -10.1461 C   0  0  0  0  0  0  0  0  0  0  0  0
  -27.7309   -1.5983  -11.1952 N   0  0  0  0  0  0  0  0  0  0  0  0
  -27.1574   -1.7110  -12.4050 C   0  0  0  0  0  0  0  0  0  0  0  0
  -25.8004   -1.7042  -12.6096 C   0  0  0  0  0  0  0  0  0  0  0  0
  -25.0328   -1.6136  -11.4728 C   0  0  0  0  0  0  0  0  0  0  0  0
  -25.5746   -1.4652  -10.2528 N   0  0  0  0  0  0  0  0  0  0  0  0
  -27.5398   -1.2129   -8.9224 N   0  0  0  0  0  0  0  0  0  0  0  0
  -27.4220   -0.2388   -8.6794 H   0  0  0  0  0  0  0  0  0  0  0  0
  -28.6983   -4.2872   -7.1892 C   0  0  0  0  0  0  0  0  0  0  0  0
  -28.6063   -3.9133   -5.8456 C   0  0  0  0  0  0  0  0  0  0  0  0
  -28.1575   -2.6393   -5.5168 C   0  0  0  0  0  0  0  0  0  0  0  0
  -27.8018   -1.7413   -6.5252 C   0  0  0  0  0  0  0  0  0  0  0  0
  -27.8906   -2.0838   -7.8801 C   0  0  0  0  0  0  0  0  0  0  0  0
  -28.3188   -3.3825   -8.1933 C   0  0  0  0  0  0  0  0  0  0  0  0
  -28.4721   -7.8327   -8.4781 C   0  0  0  0  0  0  0  0  0  0  0  0
  -28.1474   -6.5062   -8.0275 N   0  0  0  0  0  0  0  0  0  0  0  0
  -29.1360   -5.6523   -7.5851 C   0  0  0  0  0  0  0  0  0  0  0  0
  -30.3158   -5.9743   -7.5023 O   0  0  0  0  0  0  0  0  0  0  0  0
  -27.1754   -6.2624   -7.9037 H   0  0  0  0  0  0  0  0  0  0  0  0
 36 37  1  0  0  0
 37 38  1  0  0  0
 37 40  1  0  0  0
 38 39  2  0  0  0
 38 30  1  0  0  0
 30 31  1  0  0  0
 30 35  2  0  0  0
 31 32  2  0  0  0
 32 33  1  0  0  0
 33 34  2  0  0  0
 34 28  1  0  0  0
 34 35  1  0  0  0
 28 22  1  0  0  0
 28 29  1  0  0  0
 22 23  1  0  0  0
 22 27  2  0  0  0
 23 24  2  0  0  0
 24 25  1  0  0  0
 25 26  2  0  0  0
 26  1  1  0  0  0
 26 27  1  0  0  0
  1  2  1  0  0  0
  2  3  1  0  0  0
  2 11  2  0  0  0
  3  4  2  0  0  0
  4  5  1  0  0  0
  5  6  1  0  0  0
  5 10  2  0  0  0
  6 12  1  0  0  0
  6  7  2  0  0  0
 12 13  2  0  0  0
 12 14  1  0  0  0
 14 16  1  0  0  0
 14 15  1  0  0  0
 16 17  1  0  0  0
 16 21  2  0  0  0
 17 18  2  0  0  0
 18 19  1  0  0  0
 19 20  2  0  0  0
 20 21  1  0  0  0
  7  8  1  0  0  0
  8  9  2  0  0  0
  9 10  1  0  0  0
 10 11  1  0  0  0
M  END
> <minimizedAffinity>
-10.00229

$$$$
