CHEMBL241265


 30 32  0  0  0  0  0  0  0  0999 V2000
  -28.1533   -2.3101  -13.0166 C   0  0  0  0  0  0  0  0  0  0  0  0
  -26.8346   -1.8084  -13.3484 N   0  0  0  0  0  0  0  0  0  0  0  0
  -26.5408   -1.5822  -14.6423 N   0  0  0  0  0  0  0  0  0  0  0  0
  -25.2800   -1.1541  -14.6014 C   0  0  0  0  0  0  0  0  0  0  0  0
  -24.7636   -1.0951  -13.2854 C   0  0  0  0  0  0  0  0  0  0  0  0
  -25.8181   -1.4773  -12.4668 C   0  0  0  0  0  0  0  0  0  0  0  0
  -25.9969   -1.6191  -11.0408 C   0  0  0  0  0  0  0  0  0  0  0  0
  -25.0313   -1.5554  -10.2851 O   0  0  0  0  0  0  0  0  0  0  0  0
  -27.2987   -1.8338  -10.6017 N   0  0  0  0  0  0  0  0  0  0  0  0
  -28.0203   -1.8021  -11.3109 H   0  0  0  0  0  0  0  0  0  0  0  0
  -27.6887   -2.0137   -9.2525 C   0  0  0  0  0  0  0  0  0  0  0  0
  -28.0906   -3.2512   -8.7468 C   0  0  0  0  0  0  0  0  0  0  0  0
  -28.4704   -3.3995   -7.4117 C   0  0  0  0  0  0  0  0  0  0  0  0
  -28.4569   -2.3101   -6.5323 C   0  0  0  0  0  0  0  0  0  0  0  0
  -28.0498   -1.0686   -7.0346 C   0  0  0  0  0  0  0  0  0  0  0  0
  -27.9635    0.3294   -6.0226 Cl  0  0  0  0  0  0  0  0  0  0  0  0
  -27.6841   -0.9159   -8.3869 C   0  0  0  0  0  0  0  0  0  0  0  0
  -28.8855   -2.5113   -5.1028 C   0  0  0  0  0  0  0  0  0  0  0  0
  -29.3303   -3.7801   -4.8563 F   0  0  0  0  0  0  0  0  0  0  0  0
  -27.8825   -2.3038   -4.2075 F   0  0  0  0  0  0  0  0  0  0  0  0
  -29.9117   -1.6975   -4.7335 F   0  0  0  0  0  0  0  0  0  0  0  0
  -23.4841   -0.7410  -12.9967 N   0  0  0  0  0  0  0  0  0  0  0  0
  -23.3099   -0.1740  -12.1667 H   0  0  0  0  0  0  0  0  0  0  0  0
  -22.4330   -0.6166  -13.9915 C   0  0  0  0  0  0  0  0  0  0  0  0
  -21.8831    0.7800  -14.1355 C   0  0  0  0  0  0  0  0  0  0  0  0
  -20.6334    0.9481  -14.7470 C   0  0  0  0  0  0  0  0  0  0  0  0
  -20.1781    2.2292  -15.0072 C   0  0  0  0  0  0  0  0  0  0  0  0
  -20.8722    3.3424  -14.7008 N   0  0  0  0  0  0  0  0  0  0  0  0
  -22.0793    3.1654  -14.1213 C   0  0  0  0  0  0  0  0  0  0  0  0
  -22.6243    1.9236  -13.8269 C   0  0  0  0  0  0  0  0  0  0  0  0
  1  2  1  0  0  0
  2  3  1  0  0  0
  2  6  1  0  0  0
  3  4  2  0  0  0
  4  5  1  0  0  0
  5 22  1  0  0  0
  5  6  2  0  0  0
 22 24  1  0  0  0
 22 23  1  0  0  0
 24 25  1  0  0  0
 25 26  1  0  0  0
 25 30  2  0  0  0
 26 27  2  0  0  0
 27 28  1  0  0  0
 28 29  2  0  0  0
 29 30  1  0  0  0
  6  7  1  0  0  0
  7  8  2  0  0  0
  7  9  1  0  0  0
  9 11  1  0  0  0
  9 10  1  0  0  0
 11 12  1  0  0  0
 11 17  2  0  0  0
 12 13  2  0  0  0
 13 14  1  0  0  0
 14 18  1  0  0  0
 14 15  2  0  0  0
 18 19  1  0  0  0
 18 20  1  0  0  0
 18 21  1  0  0  0
 15 16  1  0  0  0
 15 17  1  0  0  0
M  END
> <minimizedAffinity>
-9.44081

$$$$
