CHEMBL3593294


 40 44  0  0  0  0  0  0  0  0999 V2000
  -15.5533   -0.7458  -12.8639 C   0  0  0  0  0  0  0  0  0  0  0  0
  -16.4372    0.1930  -12.6150 N   0  0  0  0  0  0  0  0  0  0  0  0
  -16.4506    1.1347  -13.6046 C   0  0  0  0  0  0  0  0  0  0  0  0
  -15.5487    0.9494  -14.6338 C   0  0  0  0  0  0  0  0  0  0  0  0
  -14.6709   -0.4959  -14.3365 S   0  0  0  0  0  0  0  0  0  0  0  0
  -15.3056    1.8428  -15.7682 C   0  0  0  0  0  0  0  0  0  0  0  0
  -16.1048    2.9870  -15.8833 C   0  0  0  0  0  0  0  0  0  0  0  0
  -15.9810    3.8544  -16.9665 C   0  0  0  0  0  0  0  0  0  0  0  0
  -15.0521    3.6134  -17.9750 C   0  0  0  0  0  0  0  0  0  0  0  0
  -14.2379    2.4763  -17.8668 C   0  0  0  0  0  0  0  0  0  0  0  0
  -14.3637    1.5972  -16.7729 C   0  0  0  0  0  0  0  0  0  0  0  0
  -14.9249    4.4462  -19.1092 N   0  0  0  0  0  0  0  0  0  0  0  0
  -14.5395    5.7661  -19.1138 C   0  0  0  0  0  0  0  0  0  0  0  0
  -14.1420    6.4207  -18.1604 O   0  0  0  0  0  0  0  0  0  0  0  0
  -15.2346    4.0932  -20.0016 H   0  0  0  0  0  0  0  0  0  0  0  0
  -14.7511    6.3018  -20.3488 O   0  0  0  0  0  0  0  0  0  0  0  0
  -14.6495    7.7345  -20.3793 C   0  0  0  0  0  0  0  0  0  0  0  0
  -15.9565    8.4532  -20.5895 C   0  0  0  0  0  0  0  0  0  0  0  0
  -16.2051    9.6928  -19.9767 C   0  0  0  0  0  0  0  0  0  0  0  0
  -17.3593   10.4144  -20.2878 C   0  0  0  0  0  0  0  0  0  0  0  0
  -18.2849    9.9068  -21.2006 C   0  0  0  0  0  0  0  0  0  0  0  0
  -18.0646    8.6694  -21.7957 C   0  0  0  0  0  0  0  0  0  0  0  0
  -16.9092    7.9429  -21.4869 C   0  0  0  0  0  0  0  0  0  0  0  0
  -15.3302   -1.8323  -12.0915 N   0  0  0  0  0  0  0  0  0  0  0  0
  -15.6473   -1.8381  -11.1315 H   0  0  0  0  0  0  0  0  0  0  0  0
  -13.5015   -4.8185  -13.2939 C   0  0  0  0  0  0  0  0  0  0  0  0
  -14.5380   -3.9306  -13.0998 C   0  0  0  0  0  0  0  0  0  0  0  0
  -14.3515   -2.8170  -12.2906 C   0  0  0  0  0  0  0  0  0  0  0  0
  -13.1888   -2.6094  -11.6560 N   0  0  0  0  0  0  0  0  0  0  0  0
  -12.2181   -3.5073  -11.8821 C   0  0  0  0  0  0  0  0  0  0  0  0
  -10.8812   -3.2808  -11.2490 C   0  0  0  0  0  0  0  0  0  0  0  0
  -12.3335   -4.5876  -12.6731 N   0  0  0  0  0  0  0  0  0  0  0  0
  -12.3609   -8.3765  -15.2410 N   0  0  0  0  0  0  0  0  0  0  0  0
  -13.2322   -8.4061  -14.0389 C   0  0  0  0  0  0  0  0  0  0  0  0
  -14.2074   -7.2138  -13.7890 C   0  0  0  0  0  0  0  0  0  0  0  0
  -13.5978   -5.9171  -14.1221 N   0  0  0  0  0  0  0  0  0  0  0  0
  -12.8900   -5.9000  -15.4044 C   0  0  0  0  0  0  0  0  0  0  0  0
  -11.8145   -7.0037  -15.3931 C   0  0  0  0  0  0  0  0  0  0  0  0
  -13.1713  -10.3209  -16.6069 C   0  0  0  0  0  0  0  0  0  0  0  0
  -13.0148   -8.8092  -16.4822 C   0  0  0  0  0  0  0  0  0  0  0  0
 39 40  1  0  0  0
 40 33  1  0  0  0
 33 34  1  0  0  0
 33 38  1  0  0  0
 34 35  1  0  0  0
 35 36  1  0  0  0
 36 26  1  0  0  0
 36 37  1  0  0  0
 26 27  1  0  0  0
 26 32  2  0  0  0
 27 28  2  0  0  0
 28 24  1  0  0  0
 28 29  1  0  0  0
 24  1  1  0  0  0
 24 25  1  0  0  0
  1  2  2  0  0  0
  1  5  1  0  0  0
  2  3  1  0  0  0
  3  4  2  0  0  0
  4  6  1  0  0  0
  4  5  1  0  0  0
  6  7  1  0  0  0
  6 11  2  0  0  0
  7  8  2  0  0  0
  8  9  1  0  0  0
  9 12  1  0  0  0
  9 10  2  0  0  0
 12 13  1  0  0  0
 12 15  1  0  0  0
 13 14  2  0  0  0
 13 16  1  0  0  0
 16 17  1  0  0  0
 17 18  1  0  0  0
 18 19  1  0  0  0
 18 23  2  0  0  0
 19 20  2  0  0  0
 20 21  1  0  0  0
 21 22  2  0  0  0
 22 23  1  0  0  0
 10 11  1  0  0  0
 29 30  2  0  0  0
 30 31  1  0  0  0
 30 32  1  0  0  0
 37 38  1  0  0  0
M  END
> <minimizedAffinity>
-7.32865

$$$$
