CHEMBL3690444


 40 43  0  0  0  0  0  0  0  0999 V2000
  -18.8923    1.9618  -15.0984 C   0  0  0  0  0  0  0  0  0  0  0  0
  -19.4750    0.6218  -15.2458 C   0  0  0  0  0  0  0  0  0  0  0  0
  -20.7603    0.4045  -14.9225 C   0  0  0  0  0  0  0  0  0  0  0  0
  -21.5319    1.4404  -14.3881 N   0  0  0  0  0  0  0  0  0  0  0  0
  -22.8495    1.4778  -13.9257 C   0  0  0  0  0  0  0  0  0  0  0  0
  -23.0505    2.8155  -13.6133 C   0  0  0  0  0  0  0  0  0  0  0  0
  -21.9245    3.5688  -13.8007 N   0  0  0  0  0  0  0  0  0  0  0  0
  -21.0165    2.7229  -14.2236 C   0  0  0  0  0  0  0  0  0  0  0  0
  -19.6521    2.9481  -14.5675 C   0  0  0  0  0  0  0  0  0  0  0  0
  -14.9029    2.9645  -16.1582 C   0  0  0  0  0  0  0  0  0  0  0  0
  -15.2984    1.6373  -16.2344 C   0  0  0  0  0  0  0  0  0  0  0  0
  -16.6035    1.2771  -15.9028 C   0  0  0  0  0  0  0  0  0  0  0  0
  -17.5125    2.2628  -15.5510 C   0  0  0  0  0  0  0  0  0  0  0  0
  -17.1207    3.5505  -15.5107 N   0  0  0  0  0  0  0  0  0  0  0  0
  -15.8148    3.8916  -15.8191 N   0  0  0  0  0  0  0  0  0  0  0  0
  -13.5850    3.2902  -16.5091 N   0  0  0  0  0  0  0  0  0  0  0  0
  -13.2188    2.5694  -17.1261 H   0  0  0  0  0  0  0  0  0  0  0  0
  -11.2468    3.0249  -15.9548 C   0  0  0  0  0  0  0  0  0  0  0  0
  -12.5933    3.5962  -15.4478 C   0  0  0  0  0  0  0  0  0  0  0  0
  -12.9658    2.8368  -14.1599 C   0  0  0  0  0  0  0  0  0  0  0  0
  -12.3954    5.1144  -15.1862 C   0  0  0  0  0  0  0  0  0  0  0  0
  -13.4150    5.9016  -15.8129 O   0  0  0  0  0  0  0  0  0  0  0  0
  -13.1344    6.0375  -16.7351 H   0  0  0  0  0  0  0  0  0  0  0  0
  -23.7646    0.3362  -13.7571 C   0  0  0  0  0  0  0  0  0  0  0  0
  -24.1435   -0.4320  -14.8638 C   0  0  0  0  0  0  0  0  0  0  0  0
  -25.0120   -1.5061  -14.7283 C   0  0  0  0  0  0  0  0  0  0  0  0
  -25.4547   -1.8839  -13.4669 C   0  0  0  0  0  0  0  0  0  0  0  0
  -25.0318   -1.2057  -12.3230 C   0  0  0  0  0  0  0  0  0  0  0  0
  -24.2125   -0.0710  -12.4799 C   0  0  0  0  0  0  0  0  0  0  0  0
  -25.3857   -1.6303  -11.0159 N   0  0  0  0  0  0  0  0  0  0  0  0
  -26.6634   -1.6559  -10.4927 C   0  0  0  0  0  0  0  0  0  0  0  0
  -27.7001   -1.3228  -11.0525 O   0  0  0  0  0  0  0  0  0  0  0  0
  -26.6948   -2.0726   -9.1797 N   0  0  0  0  0  0  0  0  0  0  0  0
  -24.6406   -1.9724  -10.4285 H   0  0  0  0  0  0  0  0  0  0  0  0
  -25.9988   -2.7483   -8.8998 H   0  0  0  0  0  0  0  0  0  0  0  0
  -28.0053   -2.1508   -8.5136 C   0  0  0  0  0  0  0  0  0  0  0  0
  -28.4362   -3.5408   -8.0175 C   0  0  0  0  0  0  0  0  0  0  0  0
  -28.4152   -3.6276   -6.6675 F   0  0  0  0  0  0  0  0  0  0  0  0
  -29.7136   -3.7899   -8.4038 F   0  0  0  0  0  0  0  0  0  0  0  0
  -27.6682   -4.5303   -8.5175 F   0  0  0  0  0  0  0  0  0  0  0  0
 18 19  1  0  0  0
 19 20  1  0  0  0
 19 21  1  0  0  0
 19 16  1  0  0  0
 21 22  1  0  0  0
 22 23  1  0  0  0
 16 10  1  0  0  0
 16 17  1  0  0  0
 10 11  1  0  0  0
 10 15  2  0  0  0
 11 12  2  0  0  0
 12 13  1  0  0  0
 13  1  1  0  0  0
 13 14  2  0  0  0
  1  2  1  0  0  0
  1  9  2  0  0  0
  2  3  2  0  0  0
  3  4  1  0  0  0
  4  5  1  0  0  0
  4  8  1  0  0  0
  5 24  1  0  0  0
  5  6  2  0  0  0
 24 25  1  0  0  0
 24 29  2  0  0  0
 25 26  2  0  0  0
 26 27  1  0  0  0
 27 28  2  0  0  0
 28 30  1  0  0  0
 28 29  1  0  0  0
 30 31  1  0  0  0
 30 34  1  0  0  0
 31 32  2  0  0  0
 31 33  1  0  0  0
 33 36  1  0  0  0
 33 35  1  0  0  0
 36 37  1  0  0  0
 37 38  1  0  0  0
 37 39  1  0  0  0
 37 40  1  0  0  0
  6  7  1  0  0  0
  7  8  2  0  0  0
  8  9  1  0  0  0
 14 15  1  0  0  0
M  END
> <minimizedAffinity>
-9.85303

$$$$
