CHEMBL3898881


 32 35  0  0  0  0  0  0  0  0999 V2000
  -12.7921   -4.5338  -14.8007 N   0  0  0  0  0  0  0  0  0  0  0  0
  -12.4368   -3.1360  -14.7275 C   0  0  0  0  0  0  0  0  0  0  0  0
  -11.4796   -2.8714  -13.7487 C   0  0  0  0  0  0  0  0  0  0  0  0
  -11.4536   -1.6451  -13.1390 C   0  0  0  0  0  0  0  0  0  0  0  0
  -12.1622   -0.5657  -13.5946 C   0  0  0  0  0  0  0  0  0  0  0  0
  -12.0323    0.4438  -12.7474 N   0  0  0  0  0  0  0  0  0  0  0  0
  -12.5009    1.6284  -13.1263 C   0  0  0  0  0  0  0  0  0  0  0  0
  -13.0623    1.8590  -14.3619 C   0  0  0  0  0  0  0  0  0  0  0  0
  -13.2990    0.7742  -15.2168 N   0  0  0  0  0  0  0  0  0  0  0  0
  -12.8836   -0.5619  -14.8049 C   0  0  0  0  0  0  0  0  0  0  0  0
  -13.0578   -1.9608  -15.3251 C   0  0  0  0  0  0  0  0  0  0  0  0
  -13.2273    3.3228  -14.6300 C   0  0  0  0  0  0  0  0  0  0  0  0
  -13.9563    3.9760  -15.6714 C   0  0  0  0  0  0  0  0  0  0  0  0
  -13.5002    5.2043  -15.9705 N   0  0  0  0  0  0  0  0  0  0  0  0
  -12.4224    5.3519  -15.1861 N   0  0  0  0  0  0  0  0  0  0  0  0
  -11.5953    6.5382  -15.2797 C   0  0  0  0  0  0  0  0  0  0  0  0
  -12.1911    4.2404  -14.4129 C   0  0  0  0  0  0  0  0  0  0  0  0
  -12.5777   -7.3573  -12.3121 C   0  0  0  0  0  0  0  0  0  0  0  0
  -13.7236   -7.1343  -11.5459 C   0  0  0  0  0  0  0  0  0  0  0  0
  -14.5759   -6.0836  -11.8662 C   0  0  0  0  0  0  0  0  0  0  0  0
  -14.2848   -5.2678  -12.9693 C   0  0  0  0  0  0  0  0  0  0  0  0
  -13.1596   -5.4692  -13.7912 C   0  0  0  0  0  0  0  0  0  0  0  0
  -12.3167   -6.5432  -13.4412 C   0  0  0  0  0  0  0  0  0  0  0  0
  -12.0392   -9.6842  -12.1233 C   0  0  0  0  0  0  0  0  0  0  0  0
  -11.6343   -8.3155  -12.0230 O   0  0  0  0  0  0  0  0  0  0  0  0
  -15.6981   -5.7237  -11.1678 O   0  0  0  0  0  0  0  0  0  0  0  0
  -16.8284   -5.3053  -11.9249 C   0  0  0  0  0  0  0  0  0  0  0  0
  -12.3264   -5.1436  -16.1225 C   0  0  0  0  0  0  0  0  0  0  0  0
  -13.3258   -5.9474  -16.9940 C   0  0  0  0  0  0  0  0  0  0  0  0
  -13.1648   -7.4644  -17.0890 C   0  0  0  0  0  0  0  0  0  0  0  0
  -14.3417   -8.0868  -17.5866 O   0  0  0  0  0  0  0  0  0  0  0  0
  -14.9422   -8.2313  -16.8387 H   0  0  0  0  0  0  0  0  0  0  0  0
 24 25  1  0  0  0
 25 18  1  0  0  0
 18 19  1  0  0  0
 18 23  2  0  0  0
 19 20  2  0  0  0
 20 26  1  0  0  0
 20 21  1  0  0  0
 26 27  1  0  0  0
 21 22  2  0  0  0
 22  1  1  0  0  0
 22 23  1  0  0  0
  1 28  1  0  0  0
  1  2  1  0  0  0
 28 29  1  0  0  0
 29 30  1  0  0  0
 30 31  1  0  0  0
 31 32  1  0  0  0
  2  3  1  0  0  0
  2 11  2  0  0  0
  3  4  2  0  0  0
  4  5  1  0  0  0
  5  6  1  0  0  0
  5 10  2  0  0  0
  6  7  2  0  0  0
  7  8  1  0  0  0
  8 12  1  0  0  0
  8  9  2  0  0  0
 12 13  1  0  0  0
 12 17  2  0  0  0
 13 14  2  0  0  0
 14 15  1  0  0  0
 15 16  1  0  0  0
 15 17  1  0  0  0
  9 10  1  0  0  0
 10 11  1  0  0  0
M  END
> <minimizedAffinity>
-5.80241

$$$$
