CHEMBL393462


 32 34  0  0  0  0  0  0  0  0999 V2000
  -16.5362    2.0402  -15.4348 C   0  0  0  0  0  0  0  0  0  0  0  0
  -15.5475    2.9196  -15.6368 N   0  0  0  0  0  0  0  0  0  0  0  0
  -14.3340    2.5636  -15.1704 C   0  0  0  0  0  0  0  0  0  0  0  0
  -14.0623    1.3801  -14.5157 C   0  0  0  0  0  0  0  0  0  0  0  0
  -12.4249    1.0328  -14.1201 Cl  0  0  0  0  0  0  0  0  0  0  0  0
  -15.1526    0.5499  -14.2931 C   0  0  0  0  0  0  0  0  0  0  0  0
  -16.3761    0.8849  -14.7700 N   0  0  0  0  0  0  0  0  0  0  0  0
  -15.1273   -0.7437  -13.5652 C   0  0  0  0  0  0  0  0  0  0  0  0
  -14.4850   -1.8806  -14.0737 C   0  0  0  0  0  0  0  0  0  0  0  0
  -14.5462   -3.1214  -13.4276 C   0  0  0  0  0  0  0  0  0  0  0  0
  -15.2152   -3.2792  -12.2067 C   0  0  0  0  0  0  0  0  0  0  0  0
  -15.7710   -2.1202  -11.6376 C   0  0  0  0  0  0  0  0  0  0  0  0
  -15.7289   -0.8847  -12.3021 C   0  0  0  0  0  0  0  0  0  0  0  0
  -15.3565   -4.6411  -11.5143 C   0  0  0  0  0  0  0  0  0  0  0  0
  -16.7531   -5.2344  -11.7597 C   0  0  0  0  0  0  0  0  0  0  0  0
  -14.2723   -5.6115  -12.0191 C   0  0  0  0  0  0  0  0  0  0  0  0
  -15.1858   -4.5687  -10.0536 N   0  0  0  0  0  0  0  0  0  0  0  0
  -15.8872   -3.9454   -9.6601 H   0  0  0  0  0  0  0  0  0  0  0  0
  -14.2695   -4.1789   -9.8394 H   0  0  0  0  0  0  0  0  0  0  0  0
  -17.7764    2.3609  -15.9858 N   0  0  0  0  0  0  0  0  0  0  0  0
  -17.6926    3.2659  -16.4330 H   0  0  0  0  0  0  0  0  0  0  0  0
  -21.5592    1.7008  -14.2294 C   0  0  0  0  0  0  0  0  0  0  0  0
  -21.0592    3.0013  -14.3515 C   0  0  0  0  0  0  0  0  0  0  0  0
  -19.8132    3.2263  -14.9311 C   0  0  0  0  0  0  0  0  0  0  0  0
  -19.0231    2.1586  -15.3704 C   0  0  0  0  0  0  0  0  0  0  0  0
  -19.5297    0.8604  -15.2624 C   0  0  0  0  0  0  0  0  0  0  0  0
  -20.7793    0.6294  -14.6817 C   0  0  0  0  0  0  0  0  0  0  0  0
  -22.9267    1.4652  -13.6310 C   0  0  0  0  0  0  0  0  0  0  0  0
  -23.4032    0.0196  -13.8653 C   0  0  0  0  0  0  0  0  0  0  0  0
  -25.1336   -1.4708  -13.1290 C   0  0  0  0  0  0  0  0  0  0  0  0
  -24.0150   -0.6288  -12.6912 N   0  0  0  0  0  0  0  0  0  0  0  0
  -23.0528   -1.4392  -11.9432 C   0  0  0  0  0  0  0  0  0  0  0  0
 30 31  1  0  0  0
 31 32  1  0  0  0
 31 29  1  0  0  0
 29 28  1  0  0  0
 28 22  1  0  0  0
 22 23  1  0  0  0
 22 27  2  0  0  0
 23 24  2  0  0  0
 24 25  1  0  0  0
 25 20  1  0  0  0
 25 26  2  0  0  0
 20  1  1  0  0  0
 20 21  1  0  0  0
  1  2  1  0  0  0
  1  7  2  0  0  0
  2  3  2  0  0  0
  3  4  1  0  0  0
  4  5  1  0  0  0
  4  6  2  0  0  0
  6  8  1  0  0  0
  6  7  1  0  0  0
  8  9  1  0  0  0
  8 13  2  0  0  0
  9 10  2  0  0  0
 10 11  1  0  0  0
 11 14  1  0  0  0
 11 12  2  0  0  0
 14 15  1  0  0  0
 14 16  1  0  0  0
 14 17  1  0  0  0
 17 18  1  0  0  0
 17 19  1  0  0  0
 12 13  1  0  0  0
 26 27  1  0  0  0
M  END
> <minimizedAffinity>
-9.40865

$$$$
