CHEMBL187494


 48 52  0  0  0  0  0  0  0  0999 V2000
  -22.1826    0.5900  -14.3660 C   0  0  0  0  0  0  0  0  0  0  0  0
  -21.8844    1.9189  -14.0600 C   0  0  0  0  0  0  0  0  0  0  0  0
  -20.6432    2.4744  -14.3647 C   0  0  0  0  0  0  0  0  0  0  0  0
  -19.6224    1.7090  -14.9291 C   0  0  0  0  0  0  0  0  0  0  0  0
  -19.9041    0.3448  -15.1461 C   0  0  0  0  0  0  0  0  0  0  0  0
  -21.1666   -0.2129  -14.8744 C   0  0  0  0  0  0  0  0  0  0  0  0
  -25.2424   -0.7835  -12.9415 N   0  0  0  0  0  0  0  0  0  0  0  0
  -24.0490   -0.0876  -12.9303 C   0  0  0  0  0  0  0  0  0  0  0  0
  -23.5353    0.3637  -11.9112 O   0  0  0  0  0  0  0  0  0  0  0  0
  -23.4850    0.0578  -14.1853 N   0  0  0  0  0  0  0  0  0  0  0  0
  -25.6212   -1.0502  -13.8372 H   0  0  0  0  0  0  0  0  0  0  0  0
  -24.1124    0.0947  -14.9741 H   0  0  0  0  0  0  0  0  0  0  0  0
  -27.5687   -1.6440   -9.4994 C   0  0  0  0  0  0  0  0  0  0  0  0
  -26.1886   -1.8229   -9.4582 C   0  0  0  0  0  0  0  0  0  0  0  0
  -25.4162   -1.5759  -10.5941 C   0  0  0  0  0  0  0  0  0  0  0  0
  -25.9929   -1.1205  -11.7866 C   0  0  0  0  0  0  0  0  0  0  0  0
  -27.3824   -1.0059  -11.8442 C   0  0  0  0  0  0  0  0  0  0  0  0
  -28.1651   -1.3062  -10.7195 C   0  0  0  0  0  0  0  0  0  0  0  0
  -29.7088   -7.0024   -6.2827 C   0  0  0  0  0  0  0  0  0  0  0  0
  -28.9502   -5.7775   -6.5186 N   0  0  0  0  0  0  0  0  0  0  0  0
  -28.6528   -5.6356   -7.9523 C   0  0  0  0  0  0  0  0  0  0  0  0
  -27.8287   -4.3750   -8.2349 C   0  0  0  0  0  0  0  0  0  0  0  0
  -28.4317   -3.1562   -7.6915 N   0  0  0  0  0  0  0  0  0  0  0  0
  -28.3275   -1.8764   -8.2368 C   0  0  0  0  0  0  0  0  0  0  0  0
  -28.8844   -0.9023   -7.7283 O   0  0  0  0  0  0  0  0  0  0  0  0
  -28.9347   -3.2763   -6.3188 C   0  0  0  0  0  0  0  0  0  0  0  0
  -29.7035   -4.5887   -6.0662 C   0  0  0  0  0  0  0  0  0  0  0  0
  -18.3862    2.2808  -15.2766 N   0  0  0  0  0  0  0  0  0  0  0  0
  -18.3513    3.6649  -15.7698 C   0  0  0  0  0  0  0  0  0  0  0  0
  -17.0921    1.7426  -15.0840 C   0  0  0  0  0  0  0  0  0  0  0  0
  -16.1001    1.9369  -16.0220 C   0  0  0  0  0  0  0  0  0  0  0  0
  -14.8817    1.3513  -15.7587 C   0  0  0  0  0  0  0  0  0  0  0  0
  -14.6298    0.6074  -14.6691 N   0  0  0  0  0  0  0  0  0  0  0  0
  -15.6458    0.4622  -13.8067 C   0  0  0  0  0  0  0  0  0  0  0  0
  -16.8430    1.0419  -13.9689 N   0  0  0  0  0  0  0  0  0  0  0  0
  -15.4271   -0.3502  -12.6914 N   0  0  0  0  0  0  0  0  0  0  0  0
  -14.5879   -0.0560  -12.2141 H   0  0  0  0  0  0  0  0  0  0  0  0
  -15.7518   -1.7114  -12.5675 C   0  0  0  0  0  0  0  0  0  0  0  0
  -15.7222   -2.3781  -11.3372 C   0  0  0  0  0  0  0  0  0  0  0  0
  -15.9328   -3.7561  -11.2506 C   0  0  0  0  0  0  0  0  0  0  0  0
  -16.1927   -4.5100  -12.3990 C   0  0  0  0  0  0  0  0  0  0  0  0
  -16.2825   -3.8369  -13.6275 C   0  0  0  0  0  0  0  0  0  0  0  0
  -16.0768   -2.4522  -13.7067 C   0  0  0  0  0  0  0  0  0  0  0  0
  -16.2139   -6.0158  -12.3541 C   0  0  0  0  0  0  0  0  0  0  0  0
  -14.6206   -6.7684  -12.6490 S   0  0  0  0  0  0  0  0  0  0  0  0
  -13.7641   -6.6491  -11.0982 C   0  0  0  0  0  0  0  0  0  0  0  0
  -14.8635   -8.1823  -12.8830 O   0  0  0  0  0  0  0  0  0  0  0  0
  -13.8820   -5.9975  -13.6321 O   0  0  0  0  0  0  0  0  0  0  0  0
 19 20  1  0  0  0
 20 21  1  0  0  0
 20 27  1  0  0  0
 21 22  1  0  0  0
 22 23  1  0  0  0
 23 24  1  0  0  0
 23 26  1  0  0  0
 24 25  2  0  0  0
 24 13  1  0  0  0
 13 14  1  0  0  0
 13 18  2  0  0  0
 14 15  2  0  0  0
 15 16  1  0  0  0
 16  7  1  0  0  0
 16 17  2  0  0  0
  7  8  1  0  0  0
  7 11  1  0  0  0
  8  9  2  0  0  0
  8 10  1  0  0  0
 10  1  1  0  0  0
 10 12  1  0  0  0
  1  2  1  0  0  0
  1  6  2  0  0  0
  2  3  2  0  0  0
  3  4  1  0  0  0
  4 28  1  0  0  0
  4  5  2  0  0  0
 28 29  1  0  0  0
 28 30  1  0  0  0
 30 31  1  0  0  0
 30 35  2  0  0  0
 31 32  2  0  0  0
 32 33  1  0  0  0
 33 34  2  0  0  0
 34 36  1  0  0  0
 34 35  1  0  0  0
 36 38  1  0  0  0
 36 37  1  0  0  0
 38 39  1  0  0  0
 38 43  2  0  0  0
 39 40  2  0  0  0
 40 41  1  0  0  0
 41 44  1  0  0  0
 41 42  2  0  0  0
 44 45  1  0  0  0
 45 46  1  0  0  0
 45 47  2  0  0  0
 45 48  2  0  0  0
 42 43  1  0  0  0
  5  6  1  0  0  0
 17 18  1  0  0  0
 26 27  1  0  0  0
M  END
> <minimizedAffinity>
-10.07806

$$$$
