CHEMBL3321894


 29 33  0  0  0  0  0  0  0  0999 V2000
  -26.6692   -1.8287  -10.2488 C   0  0  0  0  0  0  0  0  0  0  0  0
  -27.1028   -1.9190  -11.4911 N   0  0  0  0  0  0  0  0  0  0  0  0
  -26.0337   -1.6093  -12.2851 C   0  0  0  0  0  0  0  0  0  0  0  0
  -25.9570   -1.5463  -13.6767 C   0  0  0  0  0  0  0  0  0  0  0  0
  -24.7292   -1.2052  -14.2588 C   0  0  0  0  0  0  0  0  0  0  0  0
  -23.5876   -0.9222  -13.4844 C   0  0  0  0  0  0  0  0  0  0  0  0
  -23.6737   -0.9707  -12.0810 C   0  0  0  0  0  0  0  0  0  0  0  0
  -24.9079   -1.3275  -11.5237 C   0  0  0  0  0  0  0  0  0  0  0  0
  -25.3362   -1.4801  -10.2324 N   0  0  0  0  0  0  0  0  0  0  0  0
  -24.7752   -1.3802   -9.4006 H   0  0  0  0  0  0  0  0  0  0  0  0
  -28.4582   -0.2173   -5.8938 C   0  0  0  0  0  0  0  0  0  0  0  0
  -28.3301   -1.3117   -6.9121 C   0  0  0  0  0  0  0  0  0  0  0  0
  -28.9480   -2.5516   -6.7262 C   0  0  0  0  0  0  0  0  0  0  0  0
  -28.8234   -3.5570   -7.6855 C   0  0  0  0  0  0  0  0  0  0  0  0
  -28.0856   -3.3277   -8.8491 C   0  0  0  0  0  0  0  0  0  0  0  0
  -27.4610   -2.0922   -9.0534 C   0  0  0  0  0  0  0  0  0  0  0  0
  -27.5813   -1.0952   -8.0751 C   0  0  0  0  0  0  0  0  0  0  0  0
  -22.3876   -0.4365  -14.0793 N   0  0  0  0  0  0  0  0  0  0  0  0
  -22.1925   -0.9038  -14.9589 H   0  0  0  0  0  0  0  0  0  0  0  0
  -22.0458    0.9300  -14.2066 C   0  0  0  0  0  0  0  0  0  0  0  0
  -22.9913    1.8290  -13.8729 N   0  0  0  0  0  0  0  0  0  0  0  0
  -22.6356    3.1042  -13.8926 C   0  0  0  0  0  0  0  0  0  0  0  0
  -21.4355    3.5823  -14.2375 N   0  0  0  0  0  0  0  0  0  0  0  0
  -20.5120    2.6927  -14.6093 C   0  0  0  0  0  0  0  0  0  0  0  0
  -19.2393    3.1471  -14.9543 C   0  0  0  0  0  0  0  0  0  0  0  0
  -18.2228    2.2735  -15.3537 C   0  0  0  0  0  0  0  0  0  0  0  0
  -18.4779    0.9110  -15.4309 C   0  0  0  0  0  0  0  0  0  0  0  0
  -19.7459    0.4322  -15.0946 C   0  0  0  0  0  0  0  0  0  0  0  0
  -20.7664    1.3175  -14.6606 C   0  0  0  0  0  0  0  0  0  0  0  0
 11 12  1  0  0  0
 12 13  1  0  0  0
 12 17  2  0  0  0
 13 14  2  0  0  0
 14 15  1  0  0  0
 15 16  2  0  0  0
 16  1  1  0  0  0
 16 17  1  0  0  0
  1  2  2  0  0  0
  1  9  1  0  0  0
  2  3  1  0  0  0
  3  4  1  0  0  0
  3  8  2  0  0  0
  4  5  2  0  0  0
  5  6  1  0  0  0
  6 18  1  0  0  0
  6  7  2  0  0  0
 18 20  1  0  0  0
 18 19  1  0  0  0
 20 21  1  0  0  0
 20 29  2  0  0  0
 21 22  2  0  0  0
 22 23  1  0  0  0
 23 24  2  0  0  0
 24 25  1  0  0  0
 24 29  1  0  0  0
 25 26  2  0  0  0
 26 27  1  0  0  0
 27 28  2  0  0  0
 28 29  1  0  0  0
  7  8  1  0  0  0
  8  9  1  0  0  0
  9 10  1  0  0  0
M  END
> <minimizedAffinity>
-11.44892

$$$$
