CHEMBL3128235


 38 42  0  0  0  0  0  0  0  0999 V2000
  -22.6976   -0.2774  -12.6306 C   0  0  0  0  0  0  0  0  0  0  0  0
  -25.9651   -2.1161  -11.8204 C   0  0  0  0  0  0  0  0  0  0  0  0
  -26.6395   -1.9609  -13.0330 C   0  0  0  0  0  0  0  0  0  0  0  0
  -26.0428   -1.3137  -14.1165 C   0  0  0  0  0  0  0  0  0  0  0  0
  -24.7632   -0.7860  -13.9950 C   0  0  0  0  0  0  0  0  0  0  0  0
  -24.0728   -0.8931  -12.7823 C   0  0  0  0  0  0  0  0  0  0  0  0
  -24.6791   -1.5714  -11.7033 C   0  0  0  0  0  0  0  0  0  0  0  0
  -27.8319   -1.0861   -9.8237 O   0  0  0  0  0  0  0  0  0  0  0  0
  -27.3744   -2.2192   -9.7522 C   0  0  0  0  0  0  0  0  0  0  0  0
  -27.6137   -3.0880   -8.6964 N   0  0  0  0  0  0  0  0  0  0  0  0
  -26.5180   -2.7764  -10.6935 N   0  0  0  0  0  0  0  0  0  0  0  0
  -27.0530   -3.9240   -8.6564 H   0  0  0  0  0  0  0  0  0  0  0  0
  -26.3126   -3.7590  -10.6055 H   0  0  0  0  0  0  0  0  0  0  0  0
  -28.3763   -2.7888   -7.5404 C   0  0  0  0  0  0  0  0  0  0  0  0
  -27.9979   -1.8408   -6.5837 C   0  0  0  0  0  0  0  0  0  0  0  0
  -28.7531   -1.6488   -5.4236 C   0  0  0  0  0  0  0  0  0  0  0  0
  -29.9064   -2.3963   -5.2126 C   0  0  0  0  0  0  0  0  0  0  0  0
  -30.3175   -3.3163   -6.1746 C   0  0  0  0  0  0  0  0  0  0  0  0
  -29.5621   -3.5053   -7.3378 C   0  0  0  0  0  0  0  0  0  0  0  0
  -22.1166   -0.1134  -13.9488 N   0  0  0  0  0  0  0  0  0  0  0  0
  -22.6869   -0.4978  -14.6928 H   0  0  0  0  0  0  0  0  0  0  0  0
  -21.5854    1.1355  -14.2518 C   0  0  0  0  0  0  0  0  0  0  0  0
  -22.2935    2.2688  -14.0271 N   0  0  0  0  0  0  0  0  0  0  0  0
  -21.7144    3.4589  -14.2906 C   0  0  0  0  0  0  0  0  0  0  0  0
  -20.4796    3.6960  -14.7669 N   0  0  0  0  0  0  0  0  0  0  0  0
  -19.8035    2.5524  -14.9746 C   0  0  0  0  0  0  0  0  0  0  0  0
  -20.2856    1.2744  -14.7558 C   0  0  0  0  0  0  0  0  0  0  0  0
  -19.2266    0.4280  -15.1354 C   0  0  0  0  0  0  0  0  0  0  0  0
  -18.1493    1.0973  -15.5527 N   0  0  0  0  0  0  0  0  0  0  0  0
  -18.5116    2.3996  -15.4184 N   0  0  0  0  0  0  0  0  0  0  0  0
  -17.5432    3.4210  -15.7817 C   0  0  0  0  0  0  0  0  0  0  0  0
  -16.0819    2.9819  -15.7259 C   0  0  0  0  0  0  0  0  0  0  0  0
  -15.3133    3.3445  -16.9743 C   0  0  0  0  0  0  0  0  0  0  0  0
  -15.4412    4.6210  -17.5395 C   0  0  0  0  0  0  0  0  0  0  0  0
  -14.6884    4.9773  -18.6596 C   0  0  0  0  0  0  0  0  0  0  0  0
  -13.8097    4.0591  -19.2306 C   0  0  0  0  0  0  0  0  0  0  0  0
  -13.6937    2.7792  -18.6911 C   0  0  0  0  0  0  0  0  0  0  0  0
  -14.4453    2.4204  -17.5706 C   0  0  0  0  0  0  0  0  0  0  0  0
  8  9  2  0  0  0
  9 10  1  0  0  0
  9 11  1  0  0  0
 10 14  1  0  0  0
 10 12  1  0  0  0
 14 15  1  0  0  0
 14 19  2  0  0  0
 15 16  2  0  0  0
 16 17  1  0  0  0
 17 18  2  0  0  0
 18 19  1  0  0  0
 11  2  1  0  0  0
 11 13  1  0  0  0
  2  3  1  0  0  0
  2  7  2  0  0  0
  3  4  2  0  0  0
  4  5  1  0  0  0
  5  6  2  0  0  0
  6  1  1  0  0  0
  6  7  1  0  0  0
  1 20  1  0  0  0
 20 22  1  0  0  0
 20 21  1  0  0  0
 22 23  1  0  0  0
 22 27  2  0  0  0
 23 24  2  0  0  0
 24 25  1  0  0  0
 25 26  2  0  0  0
 26 27  1  0  0  0
 26 30  1  0  0  0
 27 28  1  0  0  0
 28 29  2  0  0  0
 29 30  1  0  0  0
 30 31  1  0  0  0
 31 32  1  0  0  0
 32 33  1  0  0  0
 33 34  1  0  0  0
 33 38  2  0  0  0
 34 35  2  0  0  0
 35 36  1  0  0  0
 36 37  2  0  0  0
 37 38  1  0  0  0
M  END
> <minimizedAffinity>
-10.64435

$$$$
