CHEMBL495984


 33 37  0  0  0  0  0  0  0  0999 V2000
  -30.1618   -7.1589   -6.2105 C   0  0  0  0  0  0  0  0  0  0  0  0
  -29.3062   -6.9047   -7.2363 C   0  0  0  0  0  0  0  0  0  0  0  0
  -28.7675   -5.5132   -7.4459 C   0  0  0  0  0  0  0  0  0  0  0  0
  -27.9705   -5.2375   -8.3419 O   0  0  0  0  0  0  0  0  0  0  0  0
  -29.1786   -4.5304   -6.6039 N   0  0  0  0  0  0  0  0  0  0  0  0
  -30.0383   -4.7451   -5.5357 C   0  0  0  0  0  0  0  0  0  0  0  0
  -30.3739   -3.6561   -4.7269 C   0  0  0  0  0  0  0  0  0  0  0  0
  -31.2135   -3.8358   -3.6380 C   0  0  0  0  0  0  0  0  0  0  0  0
  -31.7069   -5.1135   -3.3553 C   0  0  0  0  0  0  0  0  0  0  0  0
  -31.3578   -6.1975   -4.1699 C   0  0  0  0  0  0  0  0  0  0  0  0
  -30.5328   -6.0374   -5.2908 C   0  0  0  0  0  0  0  0  0  0  0  0
  -28.7898   -3.6103   -6.7715 H   0  0  0  0  0  0  0  0  0  0  0  0
  -28.8536   -7.9596   -8.1012 C   0  0  0  0  0  0  0  0  0  0  0  0
  -29.4854   -8.6821   -9.0190 N   0  0  0  0  0  0  0  0  0  0  0  0
  -28.6326   -9.7172   -9.3348 C   0  0  0  0  0  0  0  0  0  0  0  0
  -28.8307  -10.8365  -10.1547 C   0  0  0  0  0  0  0  0  0  0  0  0
  -27.8372  -11.8266  -10.1865 C   0  0  0  0  0  0  0  0  0  0  0  0
  -26.6559  -11.6858   -9.4515 C   0  0  0  0  0  0  0  0  0  0  0  0
  -26.4121  -10.5437   -8.6848 C   0  0  0  0  0  0  0  0  0  0  0  0
  -27.4322   -9.5936   -8.6509 C   0  0  0  0  0  0  0  0  0  0  0  0
  -27.5569   -8.4130   -7.9776 N   0  0  0  0  0  0  0  0  0  0  0  0
  -26.8649   -8.0085   -7.3564 H   0  0  0  0  0  0  0  0  0  0  0  0
  -30.6581   -8.4376   -5.8786 N   0  0  0  0  0  0  0  0  0  0  0  0
  -31.1824   -8.3188   -5.0010 H   0  0  0  0  0  0  0  0  0  0  0  0
  -28.0622  -10.2877   -3.7847 C   0  0  0  0  0  0  0  0  0  0  0  0
  -29.0391  -11.3716   -3.3502 C   0  0  0  0  0  0  0  0  0  0  0  0
  -29.8518  -11.9009   -4.5232 C   0  0  0  0  0  0  0  0  0  0  0  0
  -30.3789  -10.9353   -5.4909 N   0  0  0  0  0  0  0  0  0  0  0  0
  -30.4664  -11.5833   -6.8062 C   0  0  0  0  0  0  0  0  0  0  0  0
  -29.7661   -9.5999   -5.6115 C   0  0  0  0  0  0  0  0  0  0  0  0
  -28.9279   -9.1701   -4.3713 C   0  0  0  0  0  0  0  0  0  0  0  0
  -25.8015   -9.7637   -4.9064 C   0  0  0  0  0  0  0  0  0  0  0  0
  -26.9660  -10.7343   -4.7737 C   0  0  0  0  0  0  0  0  0  0  0  0
 32 33  1  0  0  0
 33 25  1  0  0  0
 25 26  1  0  0  0
 25 31  1  0  0  0
 26 27  1  0  0  0
 27 28  1  0  0  0
 28 29  1  0  0  0
 28 30  1  0  0  0
 30 23  1  0  0  0
 30 31  1  0  0  0
 23  1  1  0  0  0
 23 24  1  0  0  0
  1  2  2  0  0  0
  1 11  1  0  0  0
  2 13  1  0  0  0
  2  3  1  0  0  0
 13 14  2  0  0  0
 13 21  1  0  0  0
 14 15  1  0  0  0
 15 16  1  0  0  0
 15 20  2  0  0  0
 16 17  2  0  0  0
 17 18  1  0  0  0
 18 19  2  0  0  0
 19 20  1  0  0  0
 20 21  1  0  0  0
 21 22  1  0  0  0
  3  4  2  0  0  0
  3  5  1  0  0  0
  5  6  1  0  0  0
  5 12  1  0  0  0
  6  7  1  0  0  0
  6 11  2  0  0  0
  7  8  2  0  0  0
  8  9  1  0  0  0
  9 10  2  0  0  0
 10 11  1  0  0  0
M  END
> <minimizedAffinity>
-8.37506

$$$$
