CHEMBL4776554


 48 53  0  0  0  0  0  0  0  0999 V2000
  -13.9629   -2.3249  -12.7062 C   0  0  0  0  0  0  0  0  0  0  0  0
  -13.1795   -1.7031  -13.6894 C   0  0  0  0  0  0  0  0  0  0  0  0
  -13.7410   -0.7767  -14.5765 C   0  0  0  0  0  0  0  0  0  0  0  0
  -15.1015   -0.4700  -14.5044 C   0  0  0  0  0  0  0  0  0  0  0  0
  -15.8129   -0.9333  -13.3861 C   0  0  0  0  0  0  0  0  0  0  0  0
  -15.2358   -1.8342  -12.4838 C   0  0  0  0  0  0  0  0  0  0  0  0
  -15.9645   -2.2617  -11.4440 F   0  0  0  0  0  0  0  0  0  0  0  0
  -15.7725    0.2104  -15.5389 N   0  0  0  0  0  0  0  0  0  0  0  0
  -16.3850   -0.3651  -16.1066 H   0  0  0  0  0  0  0  0  0  0  0  0
  -15.9927    1.5851  -15.7362 C   0  0  0  0  0  0  0  0  0  0  0  0
  -14.9110    2.3347  -16.0699 N   0  0  0  0  0  0  0  0  0  0  0  0
  -15.0476    3.6705  -16.1770 C   0  0  0  0  0  0  0  0  0  0  0  0
  -16.2382    4.3362  -15.9801 C   0  0  0  0  0  0  0  0  0  0  0  0
  -17.3652    3.5865  -15.6620 C   0  0  0  0  0  0  0  0  0  0  0  0
  -18.6016    4.2315  -15.4915 N   0  0  0  0  0  0  0  0  0  0  0  0
  -19.7084    3.5398  -15.0895 C   0  0  0  0  0  0  0  0  0  0  0  0
  -19.7624    2.2040  -14.9613 C   0  0  0  0  0  0  0  0  0  0  0  0
  -18.5097    1.4194  -15.2646 C   0  0  0  0  0  0  0  0  0  0  0  0
  -18.5190    0.1921  -15.2430 O   0  0  0  0  0  0  0  0  0  0  0  0
  -17.2576    2.1839  -15.5642 C   0  0  0  0  0  0  0  0  0  0  0  0
  -18.6125    5.2428  -15.3987 H   0  0  0  0  0  0  0  0  0  0  0  0
  -20.9963    1.5665  -14.4808 C   0  0  0  0  0  0  0  0  0  0  0  0
  -21.1507    0.1722  -14.4976 C   0  0  0  0  0  0  0  0  0  0  0  0
  -22.3360   -0.4102  -14.0361 C   0  0  0  0  0  0  0  0  0  0  0  0
  -23.3641    0.4010  -13.5679 C   0  0  0  0  0  0  0  0  0  0  0  0
  -24.4942   -0.1584  -13.1158 F   0  0  0  0  0  0  0  0  0  0  0  0
  -23.2373    1.7846  -13.5655 C   0  0  0  0  0  0  0  0  0  0  0  0
  -22.0547    2.3678  -14.0252 C   0  0  0  0  0  0  0  0  0  0  0  0
  -13.3583   -3.3782  -12.0864 O   0  0  0  0  0  0  0  0  0  0  0  0
  -12.9246   -6.3337  -15.5268 C   0  0  0  0  0  0  0  0  0  0  0  0
  -13.4272   -5.3522  -14.6263 C   0  0  0  0  0  0  0  0  0  0  0  0
  -13.5886   -5.5885  -13.2143 C   0  0  0  0  0  0  0  0  0  0  0  0
  -13.7932   -4.6885  -12.1174 C   0  0  0  0  0  0  0  0  0  0  0  0
  -13.9803   -5.1058  -10.8448 N   0  0  0  0  0  0  0  0  0  0  0  0
  -13.9264   -6.4169  -10.6339 C   0  0  0  0  0  0  0  0  0  0  0  0
  -13.6503   -7.3373  -11.5554 N   0  0  0  0  0  0  0  0  0  0  0  0
  -13.4662   -6.9187  -12.8085 C   0  0  0  0  0  0  0  0  0  0  0  0
  -13.0846   -7.8930  -13.7241 C   0  0  0  0  0  0  0  0  0  0  0  0
  -12.7890   -7.6342  -15.0708 C   0  0  0  0  0  0  0  0  0  0  0  0
  -13.6959   -5.6258  -17.7124 C   0  0  0  0  0  0  0  0  0  0  0  0
  -12.6045   -5.9809  -16.8239 O   0  0  0  0  0  0  0  0  0  0  0  0
  -12.4314   -8.5813  -15.9916 O   0  0  0  0  0  0  0  0  0  0  0  0
  -13.0311   -9.8746  -15.8736 C   0  0  0  0  0  0  0  0  0  0  0  0
  -13.3810  -10.5167  -17.2423 C   0  0  0  0  0  0  0  0  0  0  0  0
  -13.6272   -9.4343  -18.2947 C   0  0  0  0  0  0  0  0  0  0  0  0
  -12.2463  -11.4619  -17.6375 C   0  0  0  0  0  0  0  0  0  0  0  0
  -14.5558  -11.3348  -17.1926 O   0  0  0  0  0  0  0  0  0  0  0  0
  -15.3251  -10.7457  -17.0853 H   0  0  0  0  0  0  0  0  0  0  0  0
 40 41  1  0  0  0
 41 30  1  0  0  0
 30 31  1  0  0  0
 30 39  2  0  0  0
 31 32  2  0  0  0
 32 33  1  0  0  0
 32 37  1  0  0  0
 33 29  1  0  0  0
 33 34  2  0  0  0
 29  1  1  0  0  0
  1  2  1  0  0  0
  1  6  2  0  0  0
  2  3  2  0  0  0
  3  4  1  0  0  0
  4  8  1  0  0  0
  4  5  2  0  0  0
  8 10  1  0  0  0
  8  9  1  0  0  0
 10 11  1  0  0  0
 10 20  2  0  0  0
 11 12  2  0  0  0
 12 13  1  0  0  0
 13 14  2  0  0  0
 14 15  1  0  0  0
 14 20  1  0  0  0
 15 16  1  0  0  0
 15 21  1  0  0  0
 16 17  2  0  0  0
 17 22  1  0  0  0
 17 18  1  0  0  0
 22 23  1  0  0  0
 22 28  2  0  0  0
 23 24  2  0  0  0
 24 25  1  0  0  0
 25 26  1  0  0  0
 25 27  2  0  0  0
 27 28  1  0  0  0
 18 19  2  0  0  0
 18 20  1  0  0  0
  5  6  1  0  0  0
  6  7  1  0  0  0
 34 35  1  0  0  0
 35 36  2  0  0  0
 36 37  1  0  0  0
 37 38  2  0  0  0
 38 39  1  0  0  0
 39 42  1  0  0  0
 42 43  1  0  0  0
 43 44  1  0  0  0
 44 45  1  0  0  0
 44 46  1  0  0  0
 44 47  1  0  0  0
 47 48  1  0  0  0
M  END
> <minimizedAffinity>
-10.61575

$$$$
