CHEMBL494821


 28 31  0  0  0  0  0  0  0  0999 V2000
  -31.7170   -5.7590   -3.5652 C   0  0  0  0  0  0  0  0  0  0  0  0
  -30.7164   -4.8033   -4.1386 C   0  0  0  0  0  0  0  0  0  0  0  0
  -30.5001   -3.5124   -3.5332 C   0  0  0  0  0  0  0  0  0  0  0  0
  -29.3405   -2.8769   -3.7706 C   0  0  0  0  0  0  0  0  0  0  0  0
  -28.6077   -3.1702   -4.9196 N   0  0  0  0  0  0  0  0  0  0  0  0
  -28.9322   -4.2645   -5.7072 C   0  0  0  0  0  0  0  0  0  0  0  0
  -28.4913   -4.5804   -6.8089 O   0  0  0  0  0  0  0  0  0  0  0  0
  -29.8763   -5.1914   -5.1076 C   0  0  0  0  0  0  0  0  0  0  0  0
  -29.9412   -6.4939   -5.7052 C   0  0  0  0  0  0  0  0  0  0  0  0
  -30.7806   -6.4810   -6.7918 C   0  0  0  0  0  0  0  0  0  0  0  0
  -30.8336   -7.5818   -7.4768 C   0  0  0  0  0  0  0  0  0  0  0  0
  -30.3611   -8.6816   -6.8921 C   0  0  0  0  0  0  0  0  0  0  0  0
  -30.7919   -9.7919   -7.3794 N   0  0  0  0  0  0  0  0  0  0  0  0
  -31.2387  -10.8372   -7.8797 C   0  0  0  0  0  0  0  0  0  0  0  0
  -32.1369  -10.0712   -8.6518 N   0  0  0  0  0  0  0  0  0  0  0  0
  -30.3597  -11.2815   -6.9627 N   0  0  0  0  0  0  0  0  0  0  0  0
  -29.3972  -10.3716   -5.9594 C   0  0  0  0  0  0  0  0  0  0  0  0
  -29.5101   -8.9017   -5.8939 C   0  0  0  0  0  0  0  0  0  0  0  0
  -29.1304   -7.6121   -5.3502 C   0  0  0  0  0  0  0  0  0  0  0  0
  -32.2467   -9.0959   -8.3972 H   0  0  0  0  0  0  0  0  0  0  0  0
  -32.7345  -10.2383   -9.4455 H   0  0  0  0  0  0  0  0  0  0  0  0
  -27.6690   -2.1874   -5.4473 C   0  0  0  0  0  0  0  0  0  0  0  0
  -27.5379   -0.9326   -4.5779 C   0  0  0  0  0  0  0  0  0  0  0  0
  -28.1721    0.2997   -5.1500 C   0  0  0  0  0  0  0  0  0  0  0  0
  -29.6518    0.3742   -4.8238 C   0  0  0  0  0  0  0  0  0  0  0  0
  -30.2392    1.2854   -5.8788 C   0  0  0  0  0  0  0  0  0  0  0  0
  -29.2230    1.3277   -7.0227 C   0  0  0  0  0  0  0  0  0  0  0  0
  -28.1495    0.3077   -6.6757 C   0  0  0  0  0  0  0  0  0  0  0  0
  1  2  1  0  0  0
  2  3  1  0  0  0
  2  8  2  0  0  0
  3  4  2  0  0  0
  4  5  1  0  0  0
  5 22  1  0  0  0
  5  6  1  0  0  0
 22 23  1  0  0  0
 23 24  1  0  0  0
 24 25  1  0  0  0
 24 28  1  0  0  0
 25 26  1  0  0  0
 26 27  1  0  0  0
 27 28  1  0  0  0
  6  7  2  0  0  0
  6  8  1  0  0  0
  8  9  1  0  0  0
  9 10  1  0  0  0
  9 19  2  0  0  0
 10 11  2  0  0  0
 11 12  1  0  0  0
 12 13  1  0  0  0
 12 18  2  0  0  0
 13 14  2  0  0  0
 14 15  1  0  0  0
 14 16  1  0  0  0
 15 20  1  0  0  0
 15 21  1  0  0  0
 16 17  2  0  0  0
 17 18  1  0  0  0
 18 19  1  0  0  0
M  END
> <minimizedAffinity>
-9.17663

$$$$
