CHEMBL3972255


 49 52  0  0  0  0  0  0  0  0999 V2000
  -26.6028   -1.6134  -10.5340 C   0  0  0  0  0  0  0  0  0  0  0  0
  -27.0109   -2.0004  -11.7952 C   0  0  0  0  0  0  0  0  0  0  0  0
  -26.1363   -1.5501  -12.8218 C   0  0  0  0  0  0  0  0  0  0  0  0
  -26.3166   -1.7908  -14.1485 N   0  0  0  0  0  0  0  0  0  0  0  0
  -25.3918   -1.2662  -14.9690 C   0  0  0  0  0  0  0  0  0  0  0  0
  -24.2932   -0.5352  -14.5627 C   0  0  0  0  0  0  0  0  0  0  0  0
  -24.0648   -0.3518  -13.1955 C   0  0  0  0  0  0  0  0  0  0  0  0
  -25.0475   -0.8401  -12.3164 C   0  0  0  0  0  0  0  0  0  0  0  0
  -25.1425   -0.7241  -10.6042 S   0  0  0  0  0  0  0  0  0  0  0  0
  -28.0231   -3.0758   -9.2668 N   0  0  0  0  0  0  0  0  0  0  0  0
  -27.2780   -1.9138   -9.2792 C   0  0  0  0  0  0  0  0  0  0  0  0
  -27.2097   -1.1823   -8.2942 O   0  0  0  0  0  0  0  0  0  0  0  0
  -28.1167   -3.5875  -10.1349 H   0  0  0  0  0  0  0  0  0  0  0  0
  -28.8568   -3.4507   -8.1434 C   0  0  0  0  0  0  0  0  0  0  0  0
  -28.6488   -4.9195   -7.7955 C   0  0  0  0  0  0  0  0  0  0  0  0
  -29.6670   -5.4106   -6.7571 C   0  0  0  0  0  0  0  0  0  0  0  0
  -29.0950   -5.9819   -5.5199 N   0  0  0  0  0  0  0  0  0  0  0  0
  -29.5768   -7.3547   -5.2313 C   0  0  0  0  0  0  0  0  0  0  0  0
  -28.6497   -8.1280   -4.2992 C   0  0  0  0  0  0  0  0  0  0  0  0
  -28.9868   -8.5633   -3.2040 O   0  0  0  0  0  0  0  0  0  0  0  0
  -26.4658   -8.9977   -4.0795 C   0  0  0  0  0  0  0  0  0  0  0  0
  -27.4081   -8.2455   -4.8467 O   0  0  0  0  0  0  0  0  0  0  0  0
  -29.3430   -5.0797   -4.3638 C   0  0  0  0  0  0  0  0  0  0  0  0
  -28.0903   -4.3401   -3.8931 C   0  0  0  0  0  0  0  0  0  0  0  0
  -26.9400   -4.7441   -3.9563 O   0  0  0  0  0  0  0  0  0  0  0  0
  -28.4617   -3.1268   -3.3781 O   0  0  0  0  0  0  0  0  0  0  0  0
  -28.7926   -2.1517   -4.3651 C   0  0  0  0  0  0  0  0  0  0  0  0
  -22.9422    0.2979  -12.7044 O   0  0  0  0  0  0  0  0  0  0  0  0
  -22.0865    0.8923  -13.6105 C   0  0  0  0  0  0  0  0  0  0  0  0
  -22.0344    2.2712  -13.8143 C   0  0  0  0  0  0  0  0  0  0  0  0
  -21.0572    2.8247  -14.6351 C   0  0  0  0  0  0  0  0  0  0  0  0
  -20.1465    2.0144  -15.3168 C   0  0  0  0  0  0  0  0  0  0  0  0
  -20.2942    0.6280  -15.2141 C   0  0  0  0  0  0  0  0  0  0  0  0
  -19.4729   -0.1809  -15.9011 F   0  0  0  0  0  0  0  0  0  0  0  0
  -21.2502    0.0621  -14.3607 C   0  0  0  0  0  0  0  0  0  0  0  0
  -19.0982    2.5767  -16.1002 N   0  0  0  0  0  0  0  0  0  0  0  0
  -17.7695    2.3873  -15.7871 C   0  0  0  0  0  0  0  0  0  0  0  0
  -17.3768    1.6274  -14.9000 O   0  0  0  0  0  0  0  0  0  0  0  0
  -16.9056    3.1632  -16.5481 N   0  0  0  0  0  0  0  0  0  0  0  0
  -19.3142    2.7866  -17.0675 H   0  0  0  0  0  0  0  0  0  0  0  0
  -17.2594    4.0960  -16.7266 H   0  0  0  0  0  0  0  0  0  0  0  0
  -15.5213    3.1052  -16.2173 C   0  0  0  0  0  0  0  0  0  0  0  0
  -14.8592    4.2275  -15.7007 C   0  0  0  0  0  0  0  0  0  0  0  0
  -13.4624    4.2525  -15.6021 C   0  0  0  0  0  0  0  0  0  0  0  0
  -12.7568    5.4930  -15.1371 C   0  0  0  0  0  0  0  0  0  0  0  0
  -12.7320    3.1317  -16.0171 C   0  0  0  0  0  0  0  0  0  0  0  0
  -13.3923    1.9853  -16.4697 C   0  0  0  0  0  0  0  0  0  0  0  0
  -14.7821    1.9705  -16.5454 C   0  0  0  0  0  0  0  0  0  0  0  0
  -15.4032    0.8888  -17.0405 F   0  0  0  0  0  0  0  0  0  0  0  0
 21 22  1  0  0  0
 22 19  1  0  0  0
 19 20  2  0  0  0
 19 18  1  0  0  0
 18 17  1  0  0  0
 17 16  1  0  0  0
 17 23  1  0  0  0
 16 15  1  0  0  0
 15 14  1  0  0  0
 14 10  1  0  0  0
 10 11  1  0  0  0
 10 13  1  0  0  0
 11 12  2  0  0  0
 11  1  1  0  0  0
  1  2  2  0  0  0
  1  9  1  0  0  0
  2  3  1  0  0  0
  3  4  1  0  0  0
  3  8  2  0  0  0
  4  5  2  0  0  0
  5  6  1  0  0  0
  6  7  2  0  0  0
  7 28  1  0  0  0
  7  8  1  0  0  0
 28 29  1  0  0  0
 29 30  1  0  0  0
 29 35  2  0  0  0
 30 31  2  0  0  0
 31 32  1  0  0  0
 32 36  1  0  0  0
 32 33  2  0  0  0
 36 37  1  0  0  0
 36 40  1  0  0  0
 37 38  2  0  0  0
 37 39  1  0  0  0
 39 42  1  0  0  0
 39 41  1  0  0  0
 42 43  1  0  0  0
 42 48  2  0  0  0
 43 44  2  0  0  0
 44 45  1  0  0  0
 44 46  1  0  0  0
 46 47  2  0  0  0
 47 48  1  0  0  0
 48 49  1  0  0  0
 33 34  1  0  0  0
 33 35  1  0  0  0
  8  9  1  0  0  0
 23 24  1  0  0  0
 24 25  2  0  0  0
 24 26  1  0  0  0
 26 27  1  0  0  0
M  END
> <minimizedAffinity>
-9.01444

$$$$
