CHEMBL3221546


 37 40  0  0  0  0  0  0  0  0999 V2000
  -28.1008   -1.8152   -4.8606 C   0  0  0  0  0  0  0  0  0  0  0  0
  -28.2365   -0.6366   -4.2079 N   0  0  0  0  0  0  0  0  0  0  0  0
  -28.3481    0.5462   -4.8633 C   0  0  0  0  0  0  0  0  0  0  0  0
  -28.2777    0.5894   -6.2202 N   0  0  0  0  0  0  0  0  0  0  0  0
  -28.1352   -0.5471   -6.9408 C   0  0  0  0  0  0  0  0  0  0  0  0
  -28.0740   -0.5110   -8.3598 C   0  0  0  0  0  0  0  0  0  0  0  0
  -27.9438   -1.6895   -9.1505 C   0  0  0  0  0  0  0  0  0  0  0  0
  -27.9135   -2.9452   -8.3604 C   0  0  0  0  0  0  0  0  0  0  0  0
  -27.9858   -2.9135   -6.9940 C   0  0  0  0  0  0  0  0  0  0  0  0
  -28.0658   -1.7778   -6.2654 C   0  0  0  0  0  0  0  0  0  0  0  0
  -27.9705   -3.0550   -4.1306 N   0  0  0  0  0  0  0  0  0  0  0  0
  -27.3476   -3.1015   -3.3102 H   0  0  0  0  0  0  0  0  0  0  0  0
  -29.8165   -6.7827   -5.1578 C   0  0  0  0  0  0  0  0  0  0  0  0
  -30.5424   -5.5670   -5.2468 C   0  0  0  0  0  0  0  0  0  0  0  0
  -29.9373   -4.3575   -4.9080 C   0  0  0  0  0  0  0  0  0  0  0  0
  -28.5976   -4.2912   -4.4890 C   0  0  0  0  0  0  0  0  0  0  0  0
  -27.8608   -5.4976   -4.4751 C   0  0  0  0  0  0  0  0  0  0  0  0
  -28.4501   -6.7103   -4.8114 C   0  0  0  0  0  0  0  0  0  0  0  0
  -27.4058   -8.1310   -4.8312 Cl  0  0  0  0  0  0  0  0  0  0  0  0
  -30.5562   -8.6352   -6.5865 C   0  0  0  0  0  0  0  0  0  0  0  0
  -31.0848   -9.6995   -6.7091 O   0  0  0  0  0  0  0  0  0  0  0  0
  -30.4625   -8.0177   -5.3826 N   0  0  0  0  0  0  0  0  0  0  0  0
  -30.8566   -8.5392   -4.5519 H   0  0  0  0  0  0  0  0  0  0  0  0
  -29.9055   -8.0722   -7.6749 O   0  0  0  0  0  0  0  0  0  0  0  0
  -27.9425   -8.9850   -8.6904 C   0  0  0  0  0  0  0  0  0  0  0  0
  -29.4584   -8.8598   -8.7182 C   0  0  0  0  0  0  0  0  0  0  0  0
  -27.7807   -4.2361   -8.6861 O   0  0  0  0  0  0  0  0  0  0  0  0
  -28.1923   -5.3702   -8.1166 C   0  0  0  0  0  0  0  0  0  0  0  0
  -27.7919   -1.5838  -10.5574 O   0  0  0  0  0  0  0  0  0  0  0  0
  -26.5197   -1.7420  -11.1782 C   0  0  0  0  0  0  0  0  0  0  0  0
  -26.0059   -0.9496  -12.4526 C   0  0  0  0  0  0  0  0  0  0  0  0
  -24.7550   -1.6026  -13.0527 N   0  0  0  0  0  0  0  0  0  0  0  0
  -23.6094   -1.8922  -12.1613 C   0  0  0  0  0  0  0  0  0  0  0  0
  -22.6977   -0.6547  -11.9302 C   0  0  0  0  0  0  0  0  0  0  0  0
  -22.2401   -0.1094  -13.1527 O   0  0  0  0  0  0  0  0  0  0  0  0
  -23.3536    0.2748  -13.9233 C   0  0  0  0  0  0  0  0  0  0  0  0
  -24.1890   -0.9911  -14.2740 C   0  0  0  0  0  0  0  0  0  0  0  0
 25 26  1  0  0  0
 26 24  1  0  0  0
 24 20  1  0  0  0
 20 21  2  0  0  0
 20 22  1  0  0  0
 22 13  1  0  0  0
 22 23  1  0  0  0
 13 14  1  0  0  0
 13 18  2  0  0  0
 14 15  2  0  0  0
 15 16  1  0  0  0
 16 11  1  0  0  0
 16 17  2  0  0  0
 11  1  1  0  0  0
 11 12  1  0  0  0
  1  2  1  0  0  0
  1 10  2  0  0  0
  2  3  2  0  0  0
  3  4  1  0  0  0
  4  5  2  0  0  0
  5  6  1  0  0  0
  5 10  1  0  0  0
  6  7  2  0  0  0
  7 29  1  0  0  0
  7  8  1  0  0  0
 29 30  1  0  0  0
 30 31  1  0  0  0
 31 32  1  0  0  0
 32 33  1  0  0  0
 32 37  1  0  0  0
 33 34  1  0  0  0
 34 35  1  0  0  0
 35 36  1  0  0  0
 36 37  1  0  0  0
  8 27  1  0  0  0
  8  9  2  0  0  0
 27 28  1  0  0  0
  9 10  1  0  0  0
 17 18  1  0  0  0
 18 19  1  0  0  0
M  END
> <minimizedAffinity>
-8.10815

$$$$
