CHEMBL241084


 29 31  0  0  0  0  0  0  0  0999 V2000
  -14.1299   -0.5714  -14.0129 C   0  0  0  0  0  0  0  0  0  0  0  0
  -14.2962   -0.2276  -15.3491 C   0  0  0  0  0  0  0  0  0  0  0  0
  -13.0993   -0.5786  -15.9947 C   0  0  0  0  0  0  0  0  0  0  0  0
  -12.2171   -1.1130  -15.1582 N   0  0  0  0  0  0  0  0  0  0  0  0
  -12.8774   -1.1633  -13.9861 N   0  0  0  0  0  0  0  0  0  0  0  0
  -12.1995   -1.8613  -12.9173 C   0  0  0  0  0  0  0  0  0  0  0  0
  -15.8497   -1.5252  -12.5073 N   0  0  0  0  0  0  0  0  0  0  0  0
  -15.0954   -0.4407  -12.9309 C   0  0  0  0  0  0  0  0  0  0  0  0
  -15.3275    0.6395  -12.3878 O   0  0  0  0  0  0  0  0  0  0  0  0
  -16.7201   -1.2651  -12.0627 H   0  0  0  0  0  0  0  0  0  0  0  0
  -15.4106   -5.6870  -12.7287 C   0  0  0  0  0  0  0  0  0  0  0  0
  -15.8144   -4.9635  -13.8620 C   0  0  0  0  0  0  0  0  0  0  0  0
  -15.9066   -3.5705  -13.8244 C   0  0  0  0  0  0  0  0  0  0  0  0
  -15.5645   -2.8887  -12.6645 C   0  0  0  0  0  0  0  0  0  0  0  0
  -15.0427   -3.5791  -11.5717 C   0  0  0  0  0  0  0  0  0  0  0  0
  -15.0278   -4.9825  -11.5725 C   0  0  0  0  0  0  0  0  0  0  0  0
  -14.3523   -7.7738  -13.1185 C   0  0  0  0  0  0  0  0  0  0  0  0
  -15.4943   -7.0523  -12.6708 O   0  0  0  0  0  0  0  0  0  0  0  0
  -14.7617   -5.5051  -10.3315 O   0  0  0  0  0  0  0  0  0  0  0  0
  -13.9813   -4.7151   -9.4469 C   0  0  0  0  0  0  0  0  0  0  0  0
  -15.4016    0.3174  -15.9100 N   0  0  0  0  0  0  0  0  0  0  0  0
  -16.1672   -0.2863  -16.2047 H   0  0  0  0  0  0  0  0  0  0  0  0
  -15.7152    1.7320  -15.8396 C   0  0  0  0  0  0  0  0  0  0  0  0
  -17.1784    1.9402  -15.5276 C   0  0  0  0  0  0  0  0  0  0  0  0
  -17.7709    3.2054  -15.6219 C   0  0  0  0  0  0  0  0  0  0  0  0
  -19.1283    3.3270  -15.3512 C   0  0  0  0  0  0  0  0  0  0  0  0
  -19.9194    2.2942  -14.9940 N   0  0  0  0  0  0  0  0  0  0  0  0
  -19.3248    1.0856  -14.8976 C   0  0  0  0  0  0  0  0  0  0  0  0
  -17.9859    0.8628  -15.1508 C   0  0  0  0  0  0  0  0  0  0  0  0
 17 18  1  0  0  0
 18 11  1  0  0  0
 11 12  1  0  0  0
 11 16  2  0  0  0
 12 13  2  0  0  0
 13 14  1  0  0  0
 14  7  1  0  0  0
 14 15  2  0  0  0
  7  8  1  0  0  0
  7 10  1  0  0  0
  8  9  2  0  0  0
  8  1  1  0  0  0
  1  2  2  0  0  0
  1  5  1  0  0  0
  2 21  1  0  0  0
  2  3  1  0  0  0
 21 23  1  0  0  0
 21 22  1  0  0  0
 23 24  1  0  0  0
 24 25  1  0  0  0
 24 29  2  0  0  0
 25 26  2  0  0  0
 26 27  1  0  0  0
 27 28  2  0  0  0
 28 29  1  0  0  0
  3  4  2  0  0  0
  4  5  1  0  0  0
  5  6  1  0  0  0
 15 16  1  0  0  0
 16 19  1  0  0  0
 19 20  1  0  0  0
M  END
> <minimizedAffinity>
-6.93662

$$$$
