CHEMBL462348


 37 41  0  0  0  0  0  0  0  0999 V2000
  -14.9182    1.0692  -16.0222 C   0  0  0  0  0  0  0  0  0  0  0  0
  -14.6237    0.8598  -17.3338 N   0  0  0  0  0  0  0  0  0  0  0  0
  -13.9251   -0.2728  -17.3223 N   0  0  0  0  0  0  0  0  0  0  0  0
  -13.5561   -1.1096  -18.4411 C   0  0  0  0  0  0  0  0  0  0  0  0
  -13.5584   -0.6554  -16.0846 C   0  0  0  0  0  0  0  0  0  0  0  0
  -12.8280   -1.8165  -15.8683 C   0  0  0  0  0  0  0  0  0  0  0  0
  -12.2155   -2.1340  -14.7345 C   0  0  0  0  0  0  0  0  0  0  0  0
  -12.5687   -1.2105  -13.6531 C   0  0  0  0  0  0  0  0  0  0  0  0
  -13.4341    0.0327  -13.8665 C   0  0  0  0  0  0  0  0  0  0  0  0
  -13.9603    0.2802  -15.1802 C   0  0  0  0  0  0  0  0  0  0  0  0
  -17.0827    2.2543  -15.7064 C   0  0  0  0  0  0  0  0  0  0  0  0
  -16.5941    3.3790  -15.7595 O   0  0  0  0  0  0  0  0  0  0  0  0
  -16.3256    1.0683  -15.8317 N   0  0  0  0  0  0  0  0  0  0  0  0
  -16.6352    0.5445  -16.6313 H   0  0  0  0  0  0  0  0  0  0  0  0
  -21.2796    1.9495  -14.4170 C   0  0  0  0  0  0  0  0  0  0  0  0
  -20.5154    0.8119  -14.6472 C   0  0  0  0  0  0  0  0  0  0  0  0
  -19.1900    0.8956  -15.1075 C   0  0  0  0  0  0  0  0  0  0  0  0
  -18.5660    2.1271  -15.3197 C   0  0  0  0  0  0  0  0  0  0  0  0
  -19.3581    3.2764  -15.1179 C   0  0  0  0  0  0  0  0  0  0  0  0
  -20.6796    3.1923  -14.6058 C   0  0  0  0  0  0  0  0  0  0  0  0
  -23.1257    0.7099  -13.5593 C   0  0  0  0  0  0  0  0  0  0  0  0
  -22.6232    1.9157  -14.1438 O   0  0  0  0  0  0  0  0  0  0  0  0
  -11.3693   -3.3318  -14.9365 O   0  0  0  0  0  0  0  0  0  0  0  0
  -11.4939   -4.3650  -15.9889 C   0  0  0  0  0  0  0  0  0  0  0  0
  -11.6645   -5.6363  -17.2069 C   0  0  0  0  0  0  0  0  0  0  0  0
  -12.2122   -6.9148  -17.2689 C   0  0  0  0  0  0  0  0  0  0  0  0
  -12.3566   -6.3848  -16.1957 N   0  0  0  0  0  0  0  0  0  0  0  0
  -12.7409   -6.2806  -15.0235 C   0  0  0  0  0  0  0  0  0  0  0  0
  -13.4622   -7.2604  -14.5470 C   0  0  0  0  0  0  0  0  0  0  0  0
  -13.7172   -7.1935  -13.2602 C   0  0  0  0  0  0  0  0  0  0  0  0
  -13.2618   -6.0717  -12.5516 C   0  0  0  0  0  0  0  0  0  0  0  0
  -12.4730   -5.0526  -13.2303 C   0  0  0  0  0  0  0  0  0  0  0  0
  -12.1748   -5.0997  -14.6703 C   0  0  0  0  0  0  0  0  0  0  0  0
  -14.3451   -8.2707  -12.7061 O   0  0  0  0  0  0  0  0  0  0  0  0
  -13.5015   -9.1849  -12.0208 C   0  0  0  0  0  0  0  0  0  0  0  0
  -13.5200   -5.8989  -11.2142 O   0  0  0  0  0  0  0  0  0  0  0  0
  -14.6831   -5.1002  -10.9341 C   0  0  0  0  0  0  0  0  0  0  0  0
 21 22  1  0  0  0
 22 15  1  0  0  0
 15 16  1  0  0  0
 15 20  2  0  0  0
 16 17  2  0  0  0
 17 18  1  0  0  0
 18 11  1  0  0  0
 18 19  2  0  0  0
 11 12  2  0  0  0
 11 13  1  0  0  0
 13  1  1  0  0  0
 13 14  1  0  0  0
  1  2  2  0  0  0
  1 10  1  0  0  0
  2  3  1  0  0  0
  3  4  1  0  0  0
  3  5  1  0  0  0
  5  6  1  0  0  0
  5 10  2  0  0  0
  6  7  2  0  0  0
  7 23  1  0  0  0
  7  8  1  0  0  0
 23 24  1  0  0  0
 24 25  1  0  0  0
 24 33  2  0  0  0
 25 26  2  0  0  0
 26 27  1  0  0  0
 27 28  2  0  0  0
 28 29  1  0  0  0
 28 33  1  0  0  0
 29 30  2  0  0  0
 30 34  1  0  0  0
 30 31  1  0  0  0
 34 35  1  0  0  0
 31 36  1  0  0  0
 31 32  2  0  0  0
 36 37  1  0  0  0
 32 33  1  0  0  0
  8  9  2  0  0  0
  9 10  1  0  0  0
 19 20  1  0  0  0
M  END
> <minimizedAffinity>
-7.88454

$$$$
