CHEMBL3926088


 33 37  0  0  0  0  0  0  0  0999 V2000
  -26.9789   -1.5439  -10.8274 N   0  0  0  0  0  0  0  0  0  0  0  0
  -25.7153   -1.2254  -11.4518 C   0  0  0  0  0  0  0  0  0  0  0  0
  -25.2552    0.0432  -11.2217 C   0  0  0  0  0  0  0  0  0  0  0  0
  -24.2020    0.5081  -11.9284 C   0  0  0  0  0  0  0  0  0  0  0  0
  -23.6515   -0.2021  -12.9504 C   0  0  0  0  0  0  0  0  0  0  0  0
  -23.4185    0.6112  -13.8770 N   0  0  0  0  0  0  0  0  0  0  0  0
  -22.1550    0.8399  -13.9267 C   0  0  0  0  0  0  0  0  0  0  0  0
  -21.1561    0.0463  -14.4237 C   0  0  0  0  0  0  0  0  0  0  0  0
  -21.9533   -1.1732  -14.0135 N   0  0  0  0  0  0  0  0  0  0  0  0
  -23.3846   -1.4682  -13.1319 C   0  0  0  0  0  0  0  0  0  0  0  0
  -24.8084   -2.0123  -12.3510 C   0  0  0  0  0  0  0  0  0  0  0  0
  -20.3418    1.4480  -14.8571 C   0  0  0  0  0  0  0  0  0  0  0  0
  -20.8381    2.8855  -14.9351 C   0  0  0  0  0  0  0  0  0  0  0  0
  -19.9282    3.8347  -15.1817 N   0  0  0  0  0  0  0  0  0  0  0  0
  -18.7889    3.1568  -15.3542 N   0  0  0  0  0  0  0  0  0  0  0  0
  -17.5603    3.9327  -15.5814 C   0  0  0  0  0  0  0  0  0  0  0  0
  -19.0004    1.7519  -15.2260 C   0  0  0  0  0  0  0  0  0  0  0  0
  -27.8130   -0.9422   -7.1768 C   0  0  0  0  0  0  0  0  0  0  0  0
  -28.3959   -2.1494   -6.8667 C   0  0  0  0  0  0  0  0  0  0  0  0
  -28.4267   -3.1677   -7.8294 C   0  0  0  0  0  0  0  0  0  0  0  0
  -27.8469   -2.9925   -9.0908 C   0  0  0  0  0  0  0  0  0  0  0  0
  -27.3024   -1.7743   -9.4594 C   0  0  0  0  0  0  0  0  0  0  0  0
  -27.1745   -0.8128   -8.4160 C   0  0  0  0  0  0  0  0  0  0  0  0
  -28.9681    1.0519   -6.5865 C   0  0  0  0  0  0  0  0  0  0  0  0
  -27.8477    0.1887   -6.4047 O   0  0  0  0  0  0  0  0  0  0  0  0
  -29.2826   -4.3771   -7.5907 C   0  0  0  0  0  0  0  0  0  0  0  0
  -28.4666   -5.5051   -7.1065 N   0  0  0  0  0  0  0  0  0  0  0  0
  -28.7261   -5.8095   -5.6914 C   0  0  0  0  0  0  0  0  0  0  0  0
  -28.7561   -6.6842   -7.9140 C   0  0  0  0  0  0  0  0  0  0  0  0
  -28.1432   -1.6071  -11.7567 C   0  0  0  0  0  0  0  0  0  0  0  0
  -27.8935   -2.3916  -13.0183 C   0  0  0  0  0  0  0  0  0  0  0  0
  -27.9410   -1.6730  -14.3613 C   0  0  0  0  0  0  0  0  0  0  0  0
  -28.8374   -2.8481  -14.1087 C   0  0  0  0  0  0  0  0  0  0  0  0
 24 25  1  0  0  0
 25 18  1  0  0  0
 18 19  1  0  0  0
 18 23  2  0  0  0
 19 20  2  0  0  0
 20 26  1  0  0  0
 20 21  1  0  0  0
 26 27  1  0  0  0
 27 28  1  0  0  0
 27 29  1  0  0  0
 21 22  2  0  0  0
 22  1  1  0  0  0
 22 23  1  0  0  0
  1 30  1  0  0  0
  1  2  1  0  0  0
 30 31  1  0  0  0
 31 32  1  0  0  0
 31 33  1  0  0  0
 32 33  1  0  0  0
  2  3  1  0  0  0
  2 11  2  0  0  0
  3  4  2  0  0  0
  4  5  1  0  0  0
  5  6  1  0  0  0
  5 10  2  0  0  0
  6  7  2  0  0  0
  7  8  1  0  0  0
  8 12  1  0  0  0
  8  9  2  0  0  0
 12 13  1  0  0  0
 12 17  2  0  0  0
 13 14  2  0  0  0
 14 15  1  0  0  0
 15 16  1  0  0  0
 15 17  1  0  0  0
  9 10  1  0  0  0
 10 11  1  0  0  0
M  END
> <minimizedAffinity>
-7.46332

$$$$
