CHEMBL3639703


 39 41  0  0  0  0  0  0  0  0999 V2000
  -27.2273   -8.6416   -5.0194 C   0  0  0  0  0  0  0  0  0  0  0  0
  -27.4149   -7.2846   -4.7480 C   0  0  0  0  0  0  0  0  0  0  0  0
  -28.7128   -6.7247   -4.7465 C   0  0  0  0  0  0  0  0  0  0  0  0
  -28.9953   -5.3585   -4.6016 C   0  0  0  0  0  0  0  0  0  0  0  0
  -30.2605   -4.8934   -4.5964 N   0  0  0  0  0  0  0  0  0  0  0  0
  -31.2375   -5.7818   -4.7765 C   0  0  0  0  0  0  0  0  0  0  0  0
  -31.0794   -7.0931   -4.9680 N   0  0  0  0  0  0  0  0  0  0  0  0
  -29.8247   -7.5500   -4.9662 C   0  0  0  0  0  0  0  0  0  0  0  0
  -29.6178   -8.9007   -5.2056 C   0  0  0  0  0  0  0  0  0  0  0  0
  -28.3405   -9.4727   -5.2141 C   0  0  0  0  0  0  0  0  0  0  0  0
  -25.3861   -9.8527   -4.0418 C   0  0  0  0  0  0  0  0  0  0  0  0
  -25.9613  -10.1140   -2.9959 O   0  0  0  0  0  0  0  0  0  0  0  0
  -25.8967   -9.1110   -5.0974 N   0  0  0  0  0  0  0  0  0  0  0  0
  -25.6347   -9.5102   -5.9914 H   0  0  0  0  0  0  0  0  0  0  0  0
  -23.3753   -9.9844   -5.4611 C   0  0  0  0  0  0  0  0  0  0  0  0
  -24.0224  -10.3638   -4.3526 C   0  0  0  0  0  0  0  0  0  0  0  0
  -27.9362   -4.4177   -4.5098 N   0  0  0  0  0  0  0  0  0  0  0  0
  -27.4656   -4.4853   -3.6119 H   0  0  0  0  0  0  0  0  0  0  0  0
  -28.0469   -3.0777   -4.9541 C   0  0  0  0  0  0  0  0  0  0  0  0
  -27.8230   -2.7490   -6.3003 C   0  0  0  0  0  0  0  0  0  0  0  0
  -28.0391   -1.4515   -6.7650 C   0  0  0  0  0  0  0  0  0  0  0  0
  -28.4536   -0.4638   -5.8757 C   0  0  0  0  0  0  0  0  0  0  0  0
  -28.8377    1.2692   -6.5253 Br  0  0  0  0  0  0  0  0  0  0  0  0
  -28.6062   -0.7487   -4.5210 C   0  0  0  0  0  0  0  0  0  0  0  0
  -28.3926   -2.0497   -4.0724 C   0  0  0  0  0  0  0  0  0  0  0  0
  -28.5621   -2.3263   -2.7697 F   0  0  0  0  0  0  0  0  0  0  0  0
  -28.3539  -10.8375   -5.3888 O   0  0  0  0  0  0  0  0  0  0  0  0
  -29.6454  -11.4175   -5.5306 C   0  0  0  0  0  0  0  0  0  0  0  0
  -29.6970  -12.3943   -6.7055 C   0  0  0  0  0  0  0  0  0  0  0  0
  -29.9061  -11.5729   -7.9739 C   0  0  0  0  0  0  0  0  0  0  0  0
  -28.7395  -10.8520   -8.4276 N   0  0  0  0  0  0  0  0  0  0  0  0
  -28.8926   -9.5340   -8.8225 C   0  0  0  0  0  0  0  0  0  0  0  0
  -29.9585   -8.9196   -8.7312 O   0  0  0  0  0  0  0  0  0  0  0  0
  -27.9843  -11.3857   -8.8512 H   0  0  0  0  0  0  0  0  0  0  0  0
  -27.6606   -8.8779   -9.3559 C   0  0  0  0  0  0  0  0  0  0  0  0
  -27.0902   -9.7386  -10.7891 S   0  0  0  0  0  0  0  0  0  0  0  0
  -28.5561  -10.2062  -11.6841 C   0  0  0  0  0  0  0  0  0  0  0  0
  -26.3726   -8.7780  -11.6050 O   0  0  0  0  0  0  0  0  0  0  0  0
  -26.4219  -10.9478  -10.3386 O   0  0  0  0  0  0  0  0  0  0  0  0
 15 16  2  0  0  0
 16 11  1  0  0  0
 11 12  2  0  0  0
 11 13  1  0  0  0
 13  1  1  0  0  0
 13 14  1  0  0  0
  1  2  1  0  0  0
  1 10  2  0  0  0
  2  3  2  0  0  0
  3  4  1  0  0  0
  3  8  1  0  0  0
  4 17  1  0  0  0
  4  5  2  0  0  0
 17 19  1  0  0  0
 17 18  1  0  0  0
 19 20  1  0  0  0
 19 25  2  0  0  0
 20 21  2  0  0  0
 21 22  1  0  0  0
 22 23  1  0  0  0
 22 24  2  0  0  0
 24 25  1  0  0  0
 25 26  1  0  0  0
  5  6  1  0  0  0
  6  7  2  0  0  0
  7  8  1  0  0  0
  8  9  2  0  0  0
  9 10  1  0  0  0
 10 27  1  0  0  0
 27 28  1  0  0  0
 28 29  1  0  0  0
 29 30  1  0  0  0
 30 31  1  0  0  0
 31 32  1  0  0  0
 31 34  1  0  0  0
 32 33  2  0  0  0
 32 35  1  0  0  0
 35 36  1  0  0  0
 36 37  1  0  0  0
 36 38  2  0  0  0
 36 39  2  0  0  0
M  END
> <minimizedAffinity>
-7.32248

$$$$
