CHEMBL2113170


 40 44  0  0  0  0  0  0  0  0999 V2000
  -14.4993    3.1877  -16.6300 C   0  0  0  0  0  0  0  0  0  0  0  0
  -14.5610    2.3199  -15.6154 C   0  0  0  0  0  0  0  0  0  0  0  0
  -15.8168    1.9481  -14.9441 C   0  0  0  0  0  0  0  0  0  0  0  0
  -15.7642    1.0788  -14.0802 O   0  0  0  0  0  0  0  0  0  0  0  0
  -17.0939    2.6137  -15.3984 C   0  0  0  0  0  0  0  0  0  0  0  0
  -17.0035    3.5294  -16.3756 C   0  0  0  0  0  0  0  0  0  0  0  0
  -15.7347    3.9219  -17.0159 C   0  0  0  0  0  0  0  0  0  0  0  0
  -15.7017    4.8205  -17.8539 O   0  0  0  0  0  0  0  0  0  0  0  0
  -18.3047    2.2413  -14.7876 N   0  0  0  0  0  0  0  0  0  0  0  0
  -18.7155    0.8282  -14.6254 C   0  0  0  0  0  0  0  0  0  0  0  0
  -20.0349    0.5562  -15.3719 C   0  0  0  0  0  0  0  0  0  0  0  0
  -21.1602    1.4054  -14.9046 N   0  0  0  0  0  0  0  0  0  0  0  0
  -20.7391    2.8196  -15.0778 C   0  0  0  0  0  0  0  0  0  0  0  0
  -19.3696    3.2103  -14.4478 C   0  0  0  0  0  0  0  0  0  0  0  0
  -21.5337    1.1470  -13.5004 C   0  0  0  0  0  0  0  0  0  0  0  0
  -22.5732    0.0608  -13.3050 C   0  0  0  0  0  0  0  0  0  0  0  0
  -22.6480   -0.6439  -12.0928 C   0  0  0  0  0  0  0  0  0  0  0  0
  -23.6154   -1.6332  -11.9019 C   0  0  0  0  0  0  0  0  0  0  0  0
  -24.5214   -1.9255  -12.9189 C   0  0  0  0  0  0  0  0  0  0  0  0
  -24.4564   -1.2350  -14.1281 C   0  0  0  0  0  0  0  0  0  0  0  0
  -23.4871   -0.2490  -14.3224 C   0  0  0  0  0  0  0  0  0  0  0  0
  -13.3475    3.4587  -17.3546 N   0  0  0  0  0  0  0  0  0  0  0  0
  -12.8093    2.6035  -17.5197 H   0  0  0  0  0  0  0  0  0  0  0  0
  -11.9165    7.8896  -19.4591 C   0  0  0  0  0  0  0  0  0  0  0  0
  -11.1863    7.6644  -18.2664 C   0  0  0  0  0  0  0  0  0  0  0  0
  -11.3832    6.5689  -17.4284 C   0  0  0  0  0  0  0  0  0  0  0  0
  -10.7057    6.4731  -16.2781 N   0  0  0  0  0  0  0  0  0  0  0  0
  -10.9605    5.4069  -15.5109 C   0  0  0  0  0  0  0  0  0  0  0  0
  -11.7965    4.4114  -15.8126 N   0  0  0  0  0  0  0  0  0  0  0  0
  -12.4651    4.5098  -16.9771 C   0  0  0  0  0  0  0  0  0  0  0  0
  -12.3104    5.6150  -17.8256 C   0  0  0  0  0  0  0  0  0  0  0  0
  -13.0687    5.8313  -18.9994 C   0  0  0  0  0  0  0  0  0  0  0  0
  -12.8884    6.9509  -19.8284 C   0  0  0  0  0  0  0  0  0  0  0  0
  -13.8452    6.9509  -20.8008 O   0  0  0  0  0  0  0  0  0  0  0  0
  -15.0491    7.6808  -20.6800 C   0  0  0  0  0  0  0  0  0  0  0  0
  -11.5330    9.0786  -20.0286 O   0  0  0  0  0  0  0  0  0  0  0  0
  -12.0716   10.2692  -19.4958 C   0  0  0  0  0  0  0  0  0  0  0  0
  -12.9834   11.0175  -20.4571 C   0  0  0  0  0  0  0  0  0  0  0  0
  -15.3096   11.5109  -20.3963 C   0  0  0  0  0  0  0  0  0  0  0  0
  -14.1011   11.4248  -19.6639 O   0  0  0  0  0  0  0  0  0  0  0  0
 39 40  1  0  0  0
 40 38  1  0  0  0
 38 37  1  0  0  0
 37 36  1  0  0  0
 36 24  1  0  0  0
 24 25  1  0  0  0
 24 33  2  0  0  0
 25 26  2  0  0  0
 26 27  1  0  0  0
 26 31  1  0  0  0
 27 28  2  0  0  0
 28 29  1  0  0  0
 29 30  2  0  0  0
 30 22  1  0  0  0
 30 31  1  0  0  0
 22  1  1  0  0  0
 22 23  1  0  0  0
  1  2  2  0  0  0
  1  7  1  0  0  0
  2  3  1  0  0  0
  3  4  2  0  0  0
  3  5  1  0  0  0
  5  9  1  0  0  0
  5  6  2  0  0  0
  9 10  1  0  0  0
  9 14  1  0  0  0
 10 11  1  0  0  0
 11 12  1  0  0  0
 12 15  1  0  0  0
 12 13  1  0  0  0
 15 16  1  0  0  0
 16 17  1  0  0  0
 16 21  2  0  0  0
 17 18  2  0  0  0
 18 19  1  0  0  0
 19 20  2  0  0  0
 20 21  1  0  0  0
 13 14  1  0  0  0
  6  7  1  0  0  0
  7  8  2  0  0  0
 31 32  2  0  0  0
 32 33  1  0  0  0
 33 34  1  0  0  0
 34 35  1  0  0  0
M  END
> <minimizedAffinity>
-7.42485

$$$$
