CHEMBL587723


 35 39  0  0  0  0  0  0  0  0999 V2000
  -29.0272   -7.5104   -4.4503 C   0  0  0  0  0  0  0  0  0  0  0  0
  -29.0089   -6.3138   -5.1574 C   0  0  0  0  0  0  0  0  0  0  0  0
  -30.0201   -5.4599   -4.6470 C   0  0  0  0  0  0  0  0  0  0  0  0
  -30.4727   -4.1566   -4.9115 C   0  0  0  0  0  0  0  0  0  0  0  0
  -31.5181   -3.6935   -4.1861 N   0  0  0  0  0  0  0  0  0  0  0  0
  -32.0557   -4.4974   -3.2444 C   0  0  0  0  0  0  0  0  0  0  0  0
  -31.6974   -5.7515   -2.9092 N   0  0  0  0  0  0  0  0  0  0  0  0
  -30.6653   -6.1686   -3.6573 C   0  0  0  0  0  0  0  0  0  0  0  0
  -30.0665   -7.3963   -3.5469 N   0  0  0  0  0  0  0  0  0  0  0  0
  -30.3564   -8.0992   -2.8853 H   0  0  0  0  0  0  0  0  0  0  0  0
  -26.2777  -10.7820   -4.8385 C   0  0  0  0  0  0  0  0  0  0  0  0
  -26.7688  -10.1050   -5.9595 C   0  0  0  0  0  0  0  0  0  0  0  0
  -27.6726   -9.0576   -5.8186 C   0  0  0  0  0  0  0  0  0  0  0  0
  -28.1401   -8.6720   -4.5565 C   0  0  0  0  0  0  0  0  0  0  0  0
  -27.6931   -9.3892   -3.4377 C   0  0  0  0  0  0  0  0  0  0  0  0
  -26.7593  -10.4240   -3.5757 C   0  0  0  0  0  0  0  0  0  0  0  0
  -25.2496  -11.8772   -5.0067 C   0  0  0  0  0  0  0  0  0  0  0  0
  -22.3354  -10.8461   -7.0682 N   0  0  0  0  0  0  0  0  0  0  0  0
  -23.2874   -9.9155   -6.4178 C   0  0  0  0  0  0  0  0  0  0  0  0
  -23.4714  -10.1569   -4.8974 C   0  0  0  0  0  0  0  0  0  0  0  0
  -23.8870  -11.5338   -4.5482 N   0  0  0  0  0  0  0  0  0  0  0  0
  -22.9093  -12.4619   -5.1682 C   0  0  0  0  0  0  0  0  0  0  0  0
  -22.6862  -12.2316   -6.6866 C   0  0  0  0  0  0  0  0  0  0  0  0
  -20.2185   -9.7480   -7.8449 C   0  0  0  0  0  0  0  0  0  0  0  0
  -20.9559  -10.4703   -6.7247 C   0  0  0  0  0  0  0  0  0  0  0  0
  -29.8646   -3.3644   -5.8678 N   0  0  0  0  0  0  0  0  0  0  0  0
  -30.4920   -2.9351   -6.5313 H   0  0  0  0  0  0  0  0  0  0  0  0
  -28.6530   -2.6234   -5.5449 C   0  0  0  0  0  0  0  0  0  0  0  0
  -28.2253   -2.8284   -4.0879 C   0  0  0  0  0  0  0  0  0  0  0  0
  -28.9189   -1.1458   -5.8231 C   0  0  0  0  0  0  0  0  0  0  0  0
  -28.0183   -0.4015   -6.5997 C   0  0  0  0  0  0  0  0  0  0  0  0
  -28.2834    0.9339   -6.9141 C   0  0  0  0  0  0  0  0  0  0  0  0
  -29.4510    1.5435   -6.4588 C   0  0  0  0  0  0  0  0  0  0  0  0
  -30.3441    0.8279   -5.6665 C   0  0  0  0  0  0  0  0  0  0  0  0
  -30.0769   -0.5036   -5.3441 C   0  0  0  0  0  0  0  0  0  0  0  0
 24 25  1  0  0  0
 25 18  1  0  0  0
 18 19  1  0  0  0
 18 23  1  0  0  0
 19 20  1  0  0  0
 20 21  1  0  0  0
 21 17  1  0  0  0
 21 22  1  0  0  0
 17 11  1  0  0  0
 11 12  1  0  0  0
 11 16  2  0  0  0
 12 13  2  0  0  0
 13 14  1  0  0  0
 14  1  1  0  0  0
 14 15  2  0  0  0
  1  2  2  0  0  0
  1  9  1  0  0  0
  2  3  1  0  0  0
  3  4  1  0  0  0
  3  8  2  0  0  0
  4 26  1  0  0  0
  4  5  2  0  0  0
 26 27  1  0  0  0
 28 30  1  0  0  0
 28 29  1  0  0  0
 28 26  1  0  0  0
 30 31  1  0  0  0
 30 35  2  0  0  0
 31 32  2  0  0  0
 32 33  1  0  0  0
 33 34  2  0  0  0
 34 35  1  0  0  0
  5  6  1  0  0  0
  6  7  2  0  0  0
  7  8  1  0  0  0
  8  9  1  0  0  0
  9 10  1  0  0  0
 15 16  1  0  0  0
 22 23  1  0  0  0
M  END
> <minimizedAffinity>
-8.69452

$$$$
