CHEMBL373845


 40 44  0  0  0  0  0  0  0  0999 V2000
  -16.7474    2.5012  -15.3096 C   0  0  0  0  0  0  0  0  0  0  0  0
  -16.5761    3.7841  -15.8796 C   0  0  0  0  0  0  0  0  0  0  0  0
  -15.3269    4.3364  -16.1328 C   0  0  0  0  0  0  0  0  0  0  0  0
  -14.1427    3.6770  -15.7885 C   0  0  0  0  0  0  0  0  0  0  0  0
  -14.3146    2.4023  -15.2032 C   0  0  0  0  0  0  0  0  0  0  0  0
  -13.3824    1.4895  -14.7798 N   0  0  0  0  0  0  0  0  0  0  0  0
  -13.8913    0.3615  -14.2745 N   0  0  0  0  0  0  0  0  0  0  0  0
  -15.2045    0.5192  -14.4029 C   0  0  0  0  0  0  0  0  0  0  0  0
  -16.0516   -0.4568  -14.0347 N   0  0  0  0  0  0  0  0  0  0  0  0
  -15.5594    1.7935  -14.9610 C   0  0  0  0  0  0  0  0  0  0  0  0
  -12.3744    1.5791  -14.8125 H   0  0  0  0  0  0  0  0  0  0  0  0
  -15.6167   -1.3365  -13.7799 H   0  0  0  0  0  0  0  0  0  0  0  0
  -16.9023   -0.5863  -14.5719 H   0  0  0  0  0  0  0  0  0  0  0  0
  -20.8058    1.0692  -14.9510 C   0  0  0  0  0  0  0  0  0  0  0  0
  -20.4590    2.3677  -14.5867 C   0  0  0  0  0  0  0  0  0  0  0  0
  -19.1475    2.8117  -14.7299 C   0  0  0  0  0  0  0  0  0  0  0  0
  -18.1190    1.9613  -15.1783 C   0  0  0  0  0  0  0  0  0  0  0  0
  -18.4698    0.6235  -15.4245 C   0  0  0  0  0  0  0  0  0  0  0  0
  -19.8014    0.1781  -15.3222 C   0  0  0  0  0  0  0  0  0  0  0  0
  -24.0707   -0.2758  -14.1453 N   0  0  0  0  0  0  0  0  0  0  0  0
  -22.7406    0.0362  -13.9431 C   0  0  0  0  0  0  0  0  0  0  0  0
  -22.1250   -0.1989  -12.9054 O   0  0  0  0  0  0  0  0  0  0  0  0
  -22.1680    0.6867  -15.0280 N   0  0  0  0  0  0  0  0  0  0  0  0
  -24.4048   -0.2370  -15.0975 H   0  0  0  0  0  0  0  0  0  0  0  0
  -22.7881    1.3135  -15.5180 H   0  0  0  0  0  0  0  0  0  0  0  0
  -28.3731   -2.5032  -13.1505 C   0  0  0  0  0  0  0  0  0  0  0  0
  -27.0742   -1.9183  -12.6830 C   0  0  0  0  0  0  0  0  0  0  0  0
  -26.7640   -1.9134  -11.3204 C   0  0  0  0  0  0  0  0  0  0  0  0
  -25.5600   -1.3665  -10.8788 C   0  0  0  0  0  0  0  0  0  0  0  0
  -24.6690   -0.8244  -11.7990 C   0  0  0  0  0  0  0  0  0  0  0  0
  -24.9467   -0.8172  -13.1712 C   0  0  0  0  0  0  0  0  0  0  0  0
  -26.1582   -1.3702  -13.6019 C   0  0  0  0  0  0  0  0  0  0  0  0
  -12.8159    4.3147  -16.1533 C   0  0  0  0  0  0  0  0  0  0  0  0
  -12.2155    4.0270  -17.4532 N   0  0  0  0  0  0  0  0  0  0  0  0
  -13.0706    4.1902  -18.6261 C   0  0  0  0  0  0  0  0  0  0  0  0
  -13.8525    2.9321  -19.0564 C   0  0  0  0  0  0  0  0  0  0  0  0
  -13.0427    1.7066  -19.1670 N   0  0  0  0  0  0  0  0  0  0  0  0
  -13.9257    0.5401  -19.2717 C   0  0  0  0  0  0  0  0  0  0  0  0
  -12.1259    1.5354  -18.0261 C   0  0  0  0  0  0  0  0  0  0  0  0
  -11.3945    2.8186  -17.5678 C   0  0  0  0  0  0  0  0  0  0  0  0
 26 27  1  0  0  0
 27 28  1  0  0  0
 27 32  2  0  0  0
 28 29  2  0  0  0
 29 30  1  0  0  0
 30 31  2  0  0  0
 31 20  1  0  0  0
 31 32  1  0  0  0
 20 21  1  0  0  0
 20 24  1  0  0  0
 21 22  2  0  0  0
 21 23  1  0  0  0
 23 14  1  0  0  0
 23 25  1  0  0  0
 14 15  1  0  0  0
 14 19  2  0  0  0
 15 16  2  0  0  0
 16 17  1  0  0  0
 17  1  1  0  0  0
 17 18  2  0  0  0
  1  2  1  0  0  0
  1 10  2  0  0  0
  2  3  2  0  0  0
  3  4  1  0  0  0
  4 33  1  0  0  0
  4  5  2  0  0  0
 33 34  1  0  0  0
 34 35  1  0  0  0
 34 40  1  0  0  0
 35 36  1  0  0  0
 36 37  1  0  0  0
 37 38  1  0  0  0
 37 39  1  0  0  0
 39 40  1  0  0  0
  5  6  1  0  0  0
  5 10  1  0  0  0
  6  7  1  0  0  0
  6 11  1  0  0  0
  7  8  2  0  0  0
  8  9  1  0  0  0
  8 10  1  0  0  0
  9 12  1  0  0  0
  9 13  1  0  0  0
 18 19  1  0  0  0
M  END
> <minimizedAffinity>
-9.80344

$$$$
