CHEMBL3633773


 34 36  0  0  0  0  0  0  0  0999 V2000
  -18.4831    2.3409  -14.8685 C   0  0  0  0  0  0  0  0  0  0  0  0
  -19.5501    3.2314  -14.6804 C   0  0  0  0  0  0  0  0  0  0  0  0
  -20.8280    2.8002  -14.3811 C   0  0  0  0  0  0  0  0  0  0  0  0
  -21.7547    3.7243  -14.1170 N   0  0  0  0  0  0  0  0  0  0  0  0
  -22.9623    3.2746  -13.7724 C   0  0  0  0  0  0  0  0  0  0  0  0
  -23.3151    1.9936  -13.6627 N   0  0  0  0  0  0  0  0  0  0  0  0
  -22.3715    1.0707  -13.9385 C   0  0  0  0  0  0  0  0  0  0  0  0
  -21.0758    1.4264  -14.3366 C   0  0  0  0  0  0  0  0  0  0  0  0
  -20.0460    0.5179  -14.6812 C   0  0  0  0  0  0  0  0  0  0  0  0
  -18.7445    0.9633  -14.9192 C   0  0  0  0  0  0  0  0  0  0  0  0
  -16.9493    3.5269  -16.2396 C   0  0  0  0  0  0  0  0  0  0  0  0
  -17.2038    2.8021  -15.0335 O   0  0  0  0  0  0  0  0  0  0  0  0
  -22.6972   -0.3026  -13.7663 N   0  0  0  0  0  0  0  0  0  0  0  0
  -21.9783   -0.7417  -13.1918 H   0  0  0  0  0  0  0  0  0  0  0  0
  -23.9896   -0.7558  -13.3971 C   0  0  0  0  0  0  0  0  0  0  0  0
  -24.3176   -0.8762  -12.0378 C   0  0  0  0  0  0  0  0  0  0  0  0
  -25.5538   -1.3800  -11.6478 C   0  0  0  0  0  0  0  0  0  0  0  0
  -25.9032   -1.5708   -9.9748 Cl  0  0  0  0  0  0  0  0  0  0  0  0
  -26.4988   -1.7421  -12.6039 C   0  0  0  0  0  0  0  0  0  0  0  0
  -26.2087   -1.5848  -13.9613 C   0  0  0  0  0  0  0  0  0  0  0  0
  -24.9627   -1.0885  -14.3554 C   0  0  0  0  0  0  0  0  0  0  0  0
  -24.6307   -0.9299  -16.0447 Cl  0  0  0  0  0  0  0  0  0  0  0  0
  -17.8566   -0.0508  -15.1925 O   0  0  0  0  0  0  0  0  0  0  0  0
  -16.5461    0.1495  -14.6694 C   0  0  0  0  0  0  0  0  0  0  0  0
  -16.4923   -0.1362  -13.1668 C   0  0  0  0  0  0  0  0  0  0  0  0
  -15.2896   -1.0515  -12.8904 C   0  0  0  0  0  0  0  0  0  0  0  0
  -15.5681   -2.1400  -11.8611 C   0  0  0  0  0  0  0  0  0  0  0  0
  -16.1202   -3.3980  -12.5408 C   0  0  0  0  0  0  0  0  0  0  0  0
  -16.0102   -4.6133  -11.6413 C   0  0  0  0  0  0  0  0  0  0  0  0
  -16.9583   -5.3109  -11.3001 O   0  0  0  0  0  0  0  0  0  0  0  0
  -14.7255   -4.8887  -11.2342 N   0  0  0  0  0  0  0  0  0  0  0  0
  -14.6173   -5.9565  -10.3094 O   0  0  0  0  0  0  0  0  0  0  0  0
  -13.9970   -4.1845  -11.1920 H   0  0  0  0  0  0  0  0  0  0  0  0
  -15.5465   -6.2747  -10.2473 H   0  0  0  0  0  0  0  0  0  0  0  0
 11 12  1  0  0  0
 12  1  1  0  0  0
  1  2  1  0  0  0
  1 10  2  0  0  0
  2  3  2  0  0  0
  3  4  1  0  0  0
  3  8  1  0  0  0
  4  5  2  0  0  0
  5  6  1  0  0  0
  6  7  2  0  0  0
  7 13  1  0  0  0
  7  8  1  0  0  0
 13 15  1  0  0  0
 13 14  1  0  0  0
 15 16  1  0  0  0
 15 21  2  0  0  0
 16 17  2  0  0  0
 17 18  1  0  0  0
 17 19  1  0  0  0
 19 20  2  0  0  0
 20 21  1  0  0  0
 21 22  1  0  0  0
  8  9  2  0  0  0
  9 10  1  0  0  0
 10 23  1  0  0  0
 23 24  1  0  0  0
 24 25  1  0  0  0
 25 26  1  0  0  0
 26 27  1  0  0  0
 27 28  1  0  0  0
 28 29  1  0  0  0
 29 30  2  0  0  0
 29 31  1  0  0  0
 31 32  1  0  0  0
 31 33  1  0  0  0
 32 34  1  0  0  0
M  END
> <minimizedAffinity>
-8.10998

$$$$
