CHEMBL2322141


 19 22  0  0  0  0  0  0  0  0999 V2000
  -31.6937   -4.9562   -3.2335 C   0  0  0  0  0  0  0  0  0  0  0  0
  -30.8262   -4.0754   -3.8556 C   0  0  0  0  0  0  0  0  0  0  0  0
  -30.4039   -4.7244   -5.0232 C   0  0  0  0  0  0  0  0  0  0  0  0
  -30.9947   -5.9694   -5.1040 C   0  0  0  0  0  0  0  0  0  0  0  0
  -30.8598   -6.9228   -6.0687 N   0  0  0  0  0  0  0  0  0  0  0  0
  -30.0414   -6.5844   -7.0413 C   0  0  0  0  0  0  0  0  0  0  0  0
  -29.3532   -5.3148   -7.0736 C   0  0  0  0  0  0  0  0  0  0  0  0
  -28.5126   -4.8471   -7.9653 N   0  0  0  0  0  0  0  0  0  0  0  0
  -28.1566   -3.5723   -7.5504 N   0  0  0  0  0  0  0  0  0  0  0  0
  -28.7998   -3.2974   -6.4259 C   0  0  0  0  0  0  0  0  0  0  0  0
  -29.5443   -4.3926   -6.0789 N   0  0  0  0  0  0  0  0  0  0  0  0
  -31.7877   -6.0979   -3.9965 N   0  0  0  0  0  0  0  0  0  0  0  0
  -32.3492   -6.9135   -3.7865 H   0  0  0  0  0  0  0  0  0  0  0  0
  -28.8249   -2.0118   -5.6721 C   0  0  0  0  0  0  0  0  0  0  0  0
  -29.8914   -1.0471   -6.2024 C   0  0  0  0  0  0  0  0  0  0  0  0
  -29.9642    0.1899   -5.3088 C   0  0  0  0  0  0  0  0  0  0  0  0
  -28.6063    0.8800   -5.1959 C   0  0  0  0  0  0  0  0  0  0  0  0
  -27.5077   -0.0826   -4.7477 C   0  0  0  0  0  0  0  0  0  0  0  0
  -27.4510   -1.3298   -5.6312 C   0  0  0  0  0  0  0  0  0  0  0  0
  1  2  2  0  0  0
  1 12  1  0  0  0
  2  3  1  0  0  0
  3  4  2  0  0  0
  3 11  1  0  0  0
  4  5  1  0  0  0
  4 12  1  0  0  0
  5  6  2  0  0  0
  6  7  1  0  0  0
  7  8  2  0  0  0
  7 11  1  0  0  0
  8  9  1  0  0  0
  9 10  2  0  0  0
 10 14  1  0  0  0
 10 11  1  0  0  0
 14 15  1  0  0  0
 14 19  1  0  0  0
 15 16  1  0  0  0
 16 17  1  0  0  0
 17 18  1  0  0  0
 18 19  1  0  0  0
 12 13  1  0  0  0
M  END
> <minimizedAffinity>
-7.20605

$$$$
