CHEMBL3944994


 36 39  0  0  0  0  0  0  0  0999 V2000
  -22.3955    0.0490  -13.4122 C   0  0  0  0  0  0  0  0  0  0  0  0
  -22.3366   -0.4040  -12.0960 C   0  0  0  0  0  0  0  0  0  0  0  0
  -23.3085   -1.2797  -11.6199 C   0  0  0  0  0  0  0  0  0  0  0  0
  -24.3679   -1.6709  -12.4465 C   0  0  0  0  0  0  0  0  0  0  0  0
  -24.4084   -1.2342  -13.7733 C   0  0  0  0  0  0  0  0  0  0  0  0
  -23.4384   -0.3477  -14.2486 C   0  0  0  0  0  0  0  0  0  0  0  0
  -20.6304    2.9231  -14.7772 N   0  0  0  0  0  0  0  0  0  0  0  0
  -21.6671    2.2338  -14.2142 C   0  0  0  0  0  0  0  0  0  0  0  0
  -22.7379    2.8164  -14.0426 O   0  0  0  0  0  0  0  0  0  0  0  0
  -21.4251    0.9223  -13.9052 N   0  0  0  0  0  0  0  0  0  0  0  0
  -20.8789    3.8640  -15.0406 H   0  0  0  0  0  0  0  0  0  0  0  0
  -20.4448    0.7295  -13.7103 H   0  0  0  0  0  0  0  0  0  0  0  0
  -17.1309    2.8818  -15.8685 C   0  0  0  0  0  0  0  0  0  0  0  0
  -16.8534    1.5199  -15.7184 C   0  0  0  0  0  0  0  0  0  0  0  0
  -17.8522    0.6892  -15.2497 C   0  0  0  0  0  0  0  0  0  0  0  0
  -19.0902    1.1270  -14.9328 N   0  0  0  0  0  0  0  0  0  0  0  0
  -19.3570    2.4439  -15.0842 C   0  0  0  0  0  0  0  0  0  0  0  0
  -18.4105    3.3475  -15.5409 C   0  0  0  0  0  0  0  0  0  0  0  0
  -14.7019    3.5095  -15.7995 C   0  0  0  0  0  0  0  0  0  0  0  0
  -16.0734    3.8355  -16.3675 C   0  0  0  0  0  0  0  0  0  0  0  0
  -16.3620    5.1296  -16.0456 F   0  0  0  0  0  0  0  0  0  0  0  0
  -15.9737    3.8157  -17.7288 F   0  0  0  0  0  0  0  0  0  0  0  0
  -25.3819   -2.5149  -12.0402 O   0  0  0  0  0  0  0  0  0  0  0  0
  -26.4624   -1.9855  -11.3602 C   0  0  0  0  0  0  0  0  0  0  0  0
  -27.5766   -1.4384  -11.9917 C   0  0  0  0  0  0  0  0  0  0  0  0
  -28.5461   -0.8691  -11.2035 C   0  0  0  0  0  0  0  0  0  0  0  0
  -28.5041   -0.8847   -9.8625 N   0  0  0  0  0  0  0  0  0  0  0  0
  -27.4742   -1.4870   -9.2480 C   0  0  0  0  0  0  0  0  0  0  0  0
  -26.4242   -2.0502   -9.9622 C   0  0  0  0  0  0  0  0  0  0  0  0
  -27.4577   -1.5428   -7.8448 N   0  0  0  0  0  0  0  0  0  0  0  0
  -28.1617   -2.4980   -7.1147 C   0  0  0  0  0  0  0  0  0  0  0  0
  -28.8771   -3.3800   -7.5576 O   0  0  0  0  0  0  0  0  0  0  0  0
  -26.9086   -0.8627   -7.3505 H   0  0  0  0  0  0  0  0  0  0  0  0
  -28.0070   -2.3882   -5.6319 C   0  0  0  0  0  0  0  0  0  0  0  0
  -28.8416   -1.3690   -4.8823 C   0  0  0  0  0  0  0  0  0  0  0  0
  -27.3688   -1.1432   -5.0545 C   0  0  0  0  0  0  0  0  0  0  0  0
 19 20  1  0  0  0
 20 21  1  0  0  0
 20 22  1  0  0  0
 20 13  1  0  0  0
 13 14  1  0  0  0
 13 18  2  0  0  0
 14 15  2  0  0  0
 15 16  1  0  0  0
 16 17  2  0  0  0
 17  7  1  0  0  0
 17 18  1  0  0  0
  7  8  1  0  0  0
  7 11  1  0  0  0
  8  9  2  0  0  0
  8 10  1  0  0  0
 10  1  1  0  0  0
 10 12  1  0  0  0
  1  2  1  0  0  0
  1  6  2  0  0  0
  2  3  2  0  0  0
  3  4  1  0  0  0
  4 23  1  0  0  0
  4  5  2  0  0  0
 23 24  1  0  0  0
 24 25  1  0  0  0
 24 29  2  0  0  0
 25 26  2  0  0  0
 26 27  1  0  0  0
 27 28  2  0  0  0
 28 30  1  0  0  0
 28 29  1  0  0  0
 30 31  1  0  0  0
 30 33  1  0  0  0
 31 32  2  0  0  0
 31 34  1  0  0  0
 34 35  1  0  0  0
 34 36  1  0  0  0
 35 36  1  0  0  0
  5  6  1  0  0  0
M  END
> <minimizedAffinity>
-9.45911

$$$$
