CHEMBL1290470


 30 32  0  0  0  0  0  0  0  0999 V2000
  -17.2585    1.8867  -15.4574 C   0  0  0  0  0  0  0  0  0  0  0  0
  -16.8806    3.1224  -16.0992 C   0  0  0  0  0  0  0  0  0  0  0  0
  -15.5376    3.2080  -16.4037 C   0  0  0  0  0  0  0  0  0  0  0  0
  -14.7547    1.7608  -15.9759 S   0  0  0  0  0  0  0  0  0  0  0  0
  -16.1401    1.0825  -15.2526 C   0  0  0  0  0  0  0  0  0  0  0  0
  -14.7876    4.3347  -16.9814 C   0  0  0  0  0  0  0  0  0  0  0  0
  -13.6160    4.7856  -16.3514 C   0  0  0  0  0  0  0  0  0  0  0  0
  -12.8882    5.8592  -16.8708 C   0  0  0  0  0  0  0  0  0  0  0  0
  -13.3168    6.4939  -18.0332 C   0  0  0  0  0  0  0  0  0  0  0  0
  -14.4706    6.0548  -18.6776 C   0  0  0  0  0  0  0  0  0  0  0  0
  -15.2009    4.9841  -18.1554 C   0  0  0  0  0  0  0  0  0  0  0  0
  -19.3085    2.5781  -14.4478 N   0  0  0  0  0  0  0  0  0  0  0  0
  -18.6047    1.5500  -15.0128 C   0  0  0  0  0  0  0  0  0  0  0  0
  -19.1044    0.4387  -15.1504 O   0  0  0  0  0  0  0  0  0  0  0  0
  -20.2701    2.3970  -14.1875 H   0  0  0  0  0  0  0  0  0  0  0  0
  -19.0189    3.5419  -14.5491 H   0  0  0  0  0  0  0  0  0  0  0  0
  -16.0589   -0.1583  -14.6042 N   0  0  0  0  0  0  0  0  0  0  0  0
  -15.6215   -0.3217  -13.2942 C   0  0  0  0  0  0  0  0  0  0  0  0
  -15.2517    0.5655  -12.5270 O   0  0  0  0  0  0  0  0  0  0  0  0
  -16.5338   -0.9279  -15.0695 H   0  0  0  0  0  0  0  0  0  0  0  0
  -15.6271   -1.6901  -12.7206 C   0  0  0  0  0  0  0  0  0  0  0  0
  -15.8359   -1.9835  -11.3708 C   0  0  0  0  0  0  0  0  0  0  0  0
  -15.9470   -3.3254  -10.9529 C   0  0  0  0  0  0  0  0  0  0  0  0
  -15.8576   -4.3677  -11.8826 C   0  0  0  0  0  0  0  0  0  0  0  0
  -15.6270   -4.0725  -13.2241 C   0  0  0  0  0  0  0  0  0  0  0  0
  -15.5231   -2.7483  -13.6411 C   0  0  0  0  0  0  0  0  0  0  0  0
  -15.9480   -5.7030  -11.6159 O   0  0  0  0  0  0  0  0  0  0  0  0
  -14.8875   -6.5121  -12.0858 C   0  0  0  0  0  0  0  0  0  0  0  0
  -14.3102   -7.0863  -10.9989 F   0  0  0  0  0  0  0  0  0  0  0  0
  -15.4088   -7.5184  -12.8285 F   0  0  0  0  0  0  0  0  0  0  0  0
 12 13  1  0  0  0
 12 15  1  0  0  0
 12 16  1  0  0  0
 13 14  2  0  0  0
 13  1  1  0  0  0
  1  2  1  0  0  0
  1  5  2  0  0  0
  2  3  2  0  0  0
  3  6  1  0  0  0
  3  4  1  0  0  0
  6  7  1  0  0  0
  6 11  2  0  0  0
  7  8  2  0  0  0
  8  9  1  0  0  0
  9 10  2  0  0  0
 10 11  1  0  0  0
  4  5  1  0  0  0
  5 17  1  0  0  0
 17 18  1  0  0  0
 17 20  1  0  0  0
 18 19  2  0  0  0
 18 21  1  0  0  0
 21 22  1  0  0  0
 21 26  2  0  0  0
 22 23  2  0  0  0
 23 24  1  0  0  0
 24 27  1  0  0  0
 24 25  2  0  0  0
 27 28  1  0  0  0
 28 29  1  0  0  0
 28 30  1  0  0  0
 25 26  1  0  0  0
M  END
> <minimizedAffinity>
-8.15090

$$$$
