CHEMBL208500


 25 28  0  0  0  0  0  0  0  0999 V2000
  -13.8128   -2.5061  -12.5596 C   0  0  0  0  0  0  0  0  0  0  0  0
  -14.6885   -3.4262  -12.1265 C   0  0  0  0  0  0  0  0  0  0  0  0
  -15.9835   -3.8697  -12.6994 C   0  0  0  0  0  0  0  0  0  0  0  0
  -16.4875   -3.6427  -13.7799 O   0  0  0  0  0  0  0  0  0  0  0  0
  -16.5191   -4.6558  -11.6886 N   0  0  0  0  0  0  0  0  0  0  0  0
  -15.6951   -4.8792  -10.6114 N   0  0  0  0  0  0  0  0  0  0  0  0
  -14.5949   -4.2054  -10.8558 C   0  0  0  0  0  0  0  0  0  0  0  0
  -17.4033   -5.1419  -11.7775 H   0  0  0  0  0  0  0  0  0  0  0  0
  -12.6581   -0.5913  -16.9656 C   0  0  0  0  0  0  0  0  0  0  0  0
  -13.3447   -0.8202  -15.7150 N   0  0  0  0  0  0  0  0  0  0  0  0
  -13.0387   -1.8299  -14.8427 C   0  0  0  0  0  0  0  0  0  0  0  0
  -13.8308   -1.6869  -13.7276 C   0  0  0  0  0  0  0  0  0  0  0  0
  -14.7350   -0.6055  -13.9842 C   0  0  0  0  0  0  0  0  0  0  0  0
  -15.8082   -0.0132  -13.2834 C   0  0  0  0  0  0  0  0  0  0  0  0
  -16.2004   -0.4940  -12.0935 F   0  0  0  0  0  0  0  0  0  0  0  0
  -16.4916    1.0801  -13.8182 C   0  0  0  0  0  0  0  0  0  0  0  0
  -16.1182    1.6034  -15.0533 C   0  0  0  0  0  0  0  0  0  0  0  0
  -15.0645    1.0380  -15.7791 C   0  0  0  0  0  0  0  0  0  0  0  0
  -14.3927   -0.0675  -15.2314 C   0  0  0  0  0  0  0  0  0  0  0  0
  -13.4115   -4.2410   -9.9886 C   0  0  0  0  0  0  0  0  0  0  0  0
  -12.4765   -5.2572  -10.1116 C   0  0  0  0  0  0  0  0  0  0  0  0
  -11.3786   -5.3326   -9.3139 N   0  0  0  0  0  0  0  0  0  0  0  0
  -11.2484   -4.3358   -8.4071 C   0  0  0  0  0  0  0  0  0  0  0  0
  -12.1638   -3.3032   -8.3070 C   0  0  0  0  0  0  0  0  0  0  0  0
  -13.2569   -3.2315   -9.0966 N   0  0  0  0  0  0  0  0  0  0  0  0
  9 10  1  0  0  0
 10 11  1  0  0  0
 10 19  1  0  0  0
 11 12  2  0  0  0
 12  1  1  0  0  0
 12 13  1  0  0  0
  1  2  2  0  0  0
  2  3  1  0  0  0
  2  7  1  0  0  0
  3  4  2  0  0  0
  3  5  1  0  0  0
  5  6  1  0  0  0
  5  8  1  0  0  0
  6  7  2  0  0  0
  7 20  1  0  0  0
 20 21  1  0  0  0
 20 25  2  0  0  0
 21 22  2  0  0  0
 22 23  1  0  0  0
 23 24  2  0  0  0
 24 25  1  0  0  0
 13 14  1  0  0  0
 13 19  2  0  0  0
 14 15  1  0  0  0
 14 16  2  0  0  0
 16 17  1  0  0  0
 17 18  2  0  0  0
 18 19  1  0  0  0
M  END
> <minimizedAffinity>
-6.89026

$$$$
