CHEMBL3660272


 39 42  0  0  0  0  0  0  0  0999 V2000
  -29.6476   -5.6918   -6.4211 C   0  0  0  0  0  0  0  0  0  0  0  0
  -29.4651   -6.1508   -5.1201 C   0  0  0  0  0  0  0  0  0  0  0  0
  -28.8437   -7.3780   -4.8902 C   0  0  0  0  0  0  0  0  0  0  0  0
  -28.4628   -8.2128   -5.9447 C   0  0  0  0  0  0  0  0  0  0  0  0
  -28.7548   -7.7976   -7.2500 C   0  0  0  0  0  0  0  0  0  0  0  0
  -29.3411   -6.5408   -7.4871 C   0  0  0  0  0  0  0  0  0  0  0  0
  -27.7698   -9.4363   -5.7505 N   0  0  0  0  0  0  0  0  0  0  0  0
  -26.5935   -9.5839   -5.0381 C   0  0  0  0  0  0  0  0  0  0  0  0
  -26.0497   -8.6932   -4.3976 O   0  0  0  0  0  0  0  0  0  0  0  0
  -26.0389  -10.8489   -5.1613 N   0  0  0  0  0  0  0  0  0  0  0  0
  -28.2029  -10.2801   -6.0943 H   0  0  0  0  0  0  0  0  0  0  0  0
  -26.1256  -11.2587   -6.0824 H   0  0  0  0  0  0  0  0  0  0  0  0
  -24.8081  -11.1271   -4.5022 C   0  0  0  0  0  0  0  0  0  0  0  0
  -24.7701  -11.6068   -3.1854 C   0  0  0  0  0  0  0  0  0  0  0  0
  -23.5503  -11.7603   -2.5111 C   0  0  0  0  0  0  0  0  0  0  0  0
  -23.5170  -12.2513   -1.0927 C   0  0  0  0  0  0  0  0  0  0  0  0
  -22.3607  -11.4267   -3.1708 C   0  0  0  0  0  0  0  0  0  0  0  0
  -22.3893  -10.9811   -4.4947 C   0  0  0  0  0  0  0  0  0  0  0  0
  -23.6077  -10.8568   -5.1571 C   0  0  0  0  0  0  0  0  0  0  0  0
  -23.6255  -10.3983   -6.4184 F   0  0  0  0  0  0  0  0  0  0  0  0
  -30.1344   -4.4303   -6.7098 O   0  0  0  0  0  0  0  0  0  0  0  0
  -27.8659   -2.1735   -8.5536 C   0  0  0  0  0  0  0  0  0  0  0  0
  -28.8537   -3.1262   -8.3351 C   0  0  0  0  0  0  0  0  0  0  0  0
  -29.2309   -3.4315   -7.0305 C   0  0  0  0  0  0  0  0  0  0  0  0
  -28.6949   -2.6851   -5.9901 C   0  0  0  0  0  0  0  0  0  0  0  0
  -27.7475   -1.7174   -6.3024 C   0  0  0  0  0  0  0  0  0  0  0  0
  -27.3009   -1.4564   -7.5570 N   0  0  0  0  0  0  0  0  0  0  0  0
  -26.0632   -1.5302  -11.7484 C   0  0  0  0  0  0  0  0  0  0  0  0
  -27.3864   -1.6271  -12.1446 C   0  0  0  0  0  0  0  0  0  0  0  0
  -28.1594   -1.8594  -11.0243 N   0  0  0  0  0  0  0  0  0  0  0  0
  -27.3640   -1.9247   -9.9025 C   0  0  0  0  0  0  0  0  0  0  0  0
  -26.0725   -1.6942  -10.3381 C   0  0  0  0  0  0  0  0  0  0  0  0
  -29.1659   -1.9777  -11.0016 H   0  0  0  0  0  0  0  0  0  0  0  0
  -23.9295   -0.4298  -12.0083 N   0  0  0  0  0  0  0  0  0  0  0  0
  -24.8403   -1.3190  -12.5290 C   0  0  0  0  0  0  0  0  0  0  0  0
  -24.6548   -1.8999  -13.5952 O   0  0  0  0  0  0  0  0  0  0  0  0
  -24.0923   -0.0398  -11.0933 H   0  0  0  0  0  0  0  0  0  0  0  0
  -22.8233    0.9937  -13.6761 C   0  0  0  0  0  0  0  0  0  0  0  0
  -22.6859   -0.1562  -12.6945 C   0  0  0  0  0  0  0  0  0  0  0  0
 38 39  1  0  0  0
 39 34  1  0  0  0
 34 35  1  0  0  0
 34 37  1  0  0  0
 35 36  2  0  0  0
 35 28  1  0  0  0
 28 29  2  0  0  0
 28 32  1  0  0  0
 29 30  1  0  0  0
 30 31  1  0  0  0
 30 33  1  0  0  0
 31 22  1  0  0  0
 31 32  2  0  0  0
 22 23  1  0  0  0
 22 27  2  0  0  0
 23 24  2  0  0  0
 24 21  1  0  0  0
 24 25  1  0  0  0
 21  1  1  0  0  0
  1  2  1  0  0  0
  1  6  2  0  0  0
  2  3  2  0  0  0
  3  4  1  0  0  0
  4  7  1  0  0  0
  4  5  2  0  0  0
  7  8  1  0  0  0
  7 11  1  0  0  0
  8  9  2  0  0  0
  8 10  1  0  0  0
 10 13  1  0  0  0
 10 12  1  0  0  0
 13 14  1  0  0  0
 13 19  2  0  0  0
 14 15  2  0  0  0
 15 16  1  0  0  0
 15 17  1  0  0  0
 17 18  2  0  0  0
 18 19  1  0  0  0
 19 20  1  0  0  0
  5  6  1  0  0  0
 25 26  2  0  0  0
 26 27  1  0  0  0
M  END
> <minimizedAffinity>
-9.82108

$$$$
