CHEMBL3931682


 44 48  0  0  0  0  0  0  0  0999 V2000
  -26.8740   -1.8729  -10.2533 N   0  0  0  0  0  0  0  0  0  0  0  0
  -27.6978   -1.5628  -11.3192 C   0  0  0  0  0  0  0  0  0  0  0  0
  -28.9242   -1.6140  -11.3028 O   0  0  0  0  0  0  0  0  0  0  0  0
  -27.0535   -1.0912  -12.4438 N   0  0  0  0  0  0  0  0  0  0  0  0
  -26.0553   -1.2786  -10.2488 H   0  0  0  0  0  0  0  0  0  0  0  0
  -27.6833   -0.5867  -13.0564 H   0  0  0  0  0  0  0  0  0  0  0  0
  -28.4247   -3.4289   -7.2575 C   0  0  0  0  0  0  0  0  0  0  0  0
  -27.9094   -3.2740   -8.5534 C   0  0  0  0  0  0  0  0  0  0  0  0
  -27.4050   -2.0446   -8.9704 C   0  0  0  0  0  0  0  0  0  0  0  0
  -27.5348   -0.9189   -8.1747 C   0  0  0  0  0  0  0  0  0  0  0  0
  -28.1197   -1.0221   -6.9097 C   0  0  0  0  0  0  0  0  0  0  0  0
  -28.5136   -2.2903   -6.4373 C   0  0  0  0  0  0  0  0  0  0  0  0
  -28.3501    0.2249   -6.0970 C   0  0  0  0  0  0  0  0  0  0  0  0
  -28.2868    1.3709   -6.8361 F   0  0  0  0  0  0  0  0  0  0  0  0
  -29.5831    0.2380   -5.5172 F   0  0  0  0  0  0  0  0  0  0  0  0
  -27.4544    0.3803   -5.0871 F   0  0  0  0  0  0  0  0  0  0  0  0
  -28.9006   -4.7904   -6.7788 C   0  0  0  0  0  0  0  0  0  0  0  0
  -28.8881   -9.1736   -4.8325 C   0  0  0  0  0  0  0  0  0  0  0  0
  -29.1404   -7.7654   -4.5319 N   0  0  0  0  0  0  0  0  0  0  0  0
  -27.9184   -6.9599   -4.7365 C   0  0  0  0  0  0  0  0  0  0  0  0
  -28.1874   -5.4561   -4.4915 C   0  0  0  0  0  0  0  0  0  0  0  0
  -29.2457   -4.8745   -5.3479 N   0  0  0  0  0  0  0  0  0  0  0  0
  -30.4614   -5.7056   -5.1542 C   0  0  0  0  0  0  0  0  0  0  0  0
  -30.2509   -7.2335   -5.3437 C   0  0  0  0  0  0  0  0  0  0  0  0
  -25.6707   -0.9252  -12.6024 C   0  0  0  0  0  0  0  0  0  0  0  0
  -24.9455   -0.0810  -11.7574 C   0  0  0  0  0  0  0  0  0  0  0  0
  -23.6247    0.2353  -12.0534 C   0  0  0  0  0  0  0  0  0  0  0  0
  -22.9902   -0.3721  -13.1401 C   0  0  0  0  0  0  0  0  0  0  0  0
  -23.7056   -1.2456  -13.9635 C   0  0  0  0  0  0  0  0  0  0  0  0
  -25.0421   -1.5424  -13.6824 C   0  0  0  0  0  0  0  0  0  0  0  0
  -21.6795   -0.1246  -13.4882 O   0  0  0  0  0  0  0  0  0  0  0  0
  -21.3466    1.1151  -13.9952 C   0  0  0  0  0  0  0  0  0  0  0  0
  -22.1518    2.2429  -13.8689 C   0  0  0  0  0  0  0  0  0  0  0  0
  -21.7332    3.4032  -14.4767 C   0  0  0  0  0  0  0  0  0  0  0  0
  -20.5592    3.5131  -15.1199 N   0  0  0  0  0  0  0  0  0  0  0  0
  -19.7458    2.4474  -15.1790 C   0  0  0  0  0  0  0  0  0  0  0  0
  -20.1077    1.2204  -14.6323 C   0  0  0  0  0  0  0  0  0  0  0  0
  -18.5039    2.5672  -15.8182 N   0  0  0  0  0  0  0  0  0  0  0  0
  -17.3010    2.1821  -15.2512 C   0  0  0  0  0  0  0  0  0  0  0  0
  -17.1192    1.6812  -14.1489 O   0  0  0  0  0  0  0  0  0  0  0  0
  -18.4909    2.9639  -16.7453 H   0  0  0  0  0  0  0  0  0  0  0  0
  -16.1159    2.4785  -16.1132 C   0  0  0  0  0  0  0  0  0  0  0  0
  -15.1527    3.5831  -15.7308 C   0  0  0  0  0  0  0  0  0  0  0  0
  -16.0869    3.7776  -16.8879 C   0  0  0  0  0  0  0  0  0  0  0  0
 18 19  1  0  0  0
 19 20  1  0  0  0
 19 24  1  0  0  0
 20 21  1  0  0  0
 21 22  1  0  0  0
 22 17  1  0  0  0
 22 23  1  0  0  0
 17  7  1  0  0  0
  7  8  1  0  0  0
  7 12  2  0  0  0
  8  9  2  0  0  0
  9  1  1  0  0  0
  9 10  1  0  0  0
  1  2  1  0  0  0
  1  5  1  0  0  0
  2  3  2  0  0  0
  2  4  1  0  0  0
  4 25  1  0  0  0
  4  6  1  0  0  0
 25 26  1  0  0  0
 25 30  2  0  0  0
 26 27  2  0  0  0
 27 28  1  0  0  0
 28 31  1  0  0  0
 28 29  2  0  0  0
 31 32  1  0  0  0
 32 33  1  0  0  0
 32 37  2  0  0  0
 33 34  2  0  0  0
 34 35  1  0  0  0
 35 36  2  0  0  0
 36 38  1  0  0  0
 36 37  1  0  0  0
 38 39  1  0  0  0
 38 41  1  0  0  0
 39 40  2  0  0  0
 39 42  1  0  0  0
 42 43  1  0  0  0
 42 44  1  0  0  0
 43 44  1  0  0  0
 29 30  1  0  0  0
 10 11  2  0  0  0
 11 13  1  0  0  0
 11 12  1  0  0  0
 13 14  1  0  0  0
 13 15  1  0  0  0
 13 16  1  0  0  0
 23 24  1  0  0  0
M  END
> <minimizedAffinity>
-10.97178

$$$$
