CHEMBL3915544


 38 42  0  0  0  0  0  0  0  0999 V2000
  -12.8272    1.4611  -14.4593 C   0  0  0  0  0  0  0  0  0  0  0  0
  -11.9002    1.8743  -13.4724 C   0  0  0  0  0  0  0  0  0  0  0  0
  -11.4979    3.2115  -13.3829 C   0  0  0  0  0  0  0  0  0  0  0  0
  -12.0066    4.1437  -14.2746 C   0  0  0  0  0  0  0  0  0  0  0  0
  -12.9433    3.7515  -15.2331 C   0  0  0  0  0  0  0  0  0  0  0  0
  -13.3743    2.4163  -15.3276 C   0  0  0  0  0  0  0  0  0  0  0  0
  -13.5444   -0.5731  -13.3120 N   0  0  0  0  0  0  0  0  0  0  0  0
  -13.0996   -0.0000  -14.4889 C   0  0  0  0  0  0  0  0  0  0  0  0
  -13.0075   -0.6445  -15.5341 O   0  0  0  0  0  0  0  0  0  0  0  0
  -13.7344   -0.0342  -12.4689 H   0  0  0  0  0  0  0  0  0  0  0  0
  -15.5544   -1.4557  -11.7561 O   0  0  0  0  0  0  0  0  0  0  0  0
  -15.0059   -2.2854  -12.4820 C   0  0  0  0  0  0  0  0  0  0  0  0
  -13.9648   -1.9114  -13.3119 N   0  0  0  0  0  0  0  0  0  0  0  0
  -13.5643   -2.5294  -14.0159 H   0  0  0  0  0  0  0  0  0  0  0  0
  -15.3932   -3.6910  -12.5110 C   0  0  0  0  0  0  0  0  0  0  0  0
  -16.5278   -4.2444  -11.9418 C   0  0  0  0  0  0  0  0  0  0  0  0
  -16.5909   -5.6586  -12.0952 C   0  0  0  0  0  0  0  0  0  0  0  0
  -15.5001   -6.1474  -12.7791 C   0  0  0  0  0  0  0  0  0  0  0  0
  -14.4272   -4.9015  -13.2486 S   0  0  0  0  0  0  0  0  0  0  0  0
  -14.5695    2.0955  -16.6183 S   0  0  0  0  0  0  0  0  0  0  0  0
  -16.0955    1.9175  -15.6994 C   0  0  0  0  0  0  0  0  0  0  0  0
  -16.1233    1.5010  -14.3566 C   0  0  0  0  0  0  0  0  0  0  0  0
  -17.3420    1.3889  -13.6461 C   0  0  0  0  0  0  0  0  0  0  0  0
  -18.5177    1.8384  -14.2712 C   0  0  0  0  0  0  0  0  0  0  0  0
  -19.9295    1.9712  -14.0221 C   0  0  0  0  0  0  0  0  0  0  0  0
  -20.2245    3.2315  -14.4174 N   0  0  0  0  0  0  0  0  0  0  0  0
  -19.4843    3.3063  -15.5423 N   0  0  0  0  0  0  0  0  0  0  0  0
  -18.3733    2.5052  -15.4863 C   0  0  0  0  0  0  0  0  0  0  0  0
  -17.2533    2.4096  -16.3051 C   0  0  0  0  0  0  0  0  0  0  0  0
  -19.7062    4.0318  -16.2260 H   0  0  0  0  0  0  0  0  0  0  0  0
  -20.9855    1.0318  -14.3973 C   0  0  0  0  0  0  0  0  0  0  0  0
  -22.2408    1.0596  -13.9062 C   0  0  0  0  0  0  0  0  0  0  0  0
  -22.9622   -0.1809  -13.5234 C   0  0  0  0  0  0  0  0  0  0  0  0
  -24.0894   -0.5818  -14.2362 C   0  0  0  0  0  0  0  0  0  0  0  0
  -24.8993   -1.5917  -13.7115 C   0  0  0  0  0  0  0  0  0  0  0  0
  -24.5720   -2.1724  -12.4952 C   0  0  0  0  0  0  0  0  0  0  0  0
  -23.4328   -1.7247  -11.8513 C   0  0  0  0  0  0  0  0  0  0  0  0
  -22.6198   -0.7627  -12.3404 N   0  0  0  0  0  0  0  0  0  0  0  0
 11 12  2  0  0  0
 12 13  1  0  0  0
 12 15  1  0  0  0
 13  7  1  0  0  0
 13 14  1  0  0  0
  7  8  1  0  0  0
  7 10  1  0  0  0
  8  9  2  0  0  0
  8  1  1  0  0  0
  1  2  1  0  0  0
  1  6  2  0  0  0
  2  3  2  0  0  0
  3  4  1  0  0  0
  4  5  2  0  0  0
  5  6  1  0  0  0
  6 20  1  0  0  0
 20 21  1  0  0  0
 21 22  1  0  0  0
 21 29  2  0  0  0
 22 23  2  0  0  0
 23 24  1  0  0  0
 24 25  1  0  0  0
 24 28  2  0  0  0
 25 31  1  0  0  0
 25 26  2  0  0  0
 31 32  2  0  0  0
 32 33  1  0  0  0
 33 34  1  0  0  0
 33 38  2  0  0  0
 34 35  2  0  0  0
 35 36  1  0  0  0
 36 37  2  0  0  0
 37 38  1  0  0  0
 26 27  1  0  0  0
 27 28  1  0  0  0
 27 30  1  0  0  0
 28 29  1  0  0  0
 15 16  2  0  0  0
 15 19  1  0  0  0
 16 17  1  0  0  0
 17 18  2  0  0  0
 18 19  1  0  0  0
M  END
> <minimizedAffinity>
-9.81261

$$$$
