CHEMBL452288


 36 40  0  0  0  0  0  0  0  0999 V2000
  -20.4866    1.9107  -15.0999 C   0  0  0  0  0  0  0  0  0  0  0  0
  -20.5707    0.5152  -15.0113 C   0  0  0  0  0  0  0  0  0  0  0  0
  -21.6159   -0.0947  -14.3111 C   0  0  0  0  0  0  0  0  0  0  0  0
  -22.5955    0.6898  -13.6975 C   0  0  0  0  0  0  0  0  0  0  0  0
  -22.4788    2.0868  -13.7371 C   0  0  0  0  0  0  0  0  0  0  0  0
  -21.4139    2.6964  -14.4149 C   0  0  0  0  0  0  0  0  0  0  0  0
  -23.7522    0.0568  -13.0538 C   0  0  0  0  0  0  0  0  0  0  0  0
  -23.8793    0.0727  -11.5615 C   0  0  0  0  0  0  0  0  0  0  0  0
  -24.8269   -0.4626  -10.8506 N   0  0  0  0  0  0  0  0  0  0  0  0
  -25.8073   -1.1114  -11.5516 C   0  0  0  0  0  0  0  0  0  0  0  0
  -26.9292   -1.8181  -11.1592 C   0  0  0  0  0  0  0  0  0  0  0  0
  -27.5125   -2.2684  -12.3593 C   0  0  0  0  0  0  0  0  0  0  0  0
  -26.8407   -1.8893  -13.4461 N   0  0  0  0  0  0  0  0  0  0  0  0
  -25.7940   -1.1611  -12.9529 N   0  0  0  0  0  0  0  0  0  0  0  0
  -24.7550   -0.5550  -13.7141 C   0  0  0  0  0  0  0  0  0  0  0  0
  -24.8527   -0.6601  -15.1038 N   0  0  0  0  0  0  0  0  0  0  0  0
  -25.4854   -1.4160  -15.3789 H   0  0  0  0  0  0  0  0  0  0  0  0
  -23.9607   -0.6636  -15.5887 H   0  0  0  0  0  0  0  0  0  0  0  0
  -27.4097   -2.0654   -9.7640 C   0  0  0  0  0  0  0  0  0  0  0  0
  -27.7477   -3.2966   -9.2394 C   0  0  0  0  0  0  0  0  0  0  0  0
  -28.1888   -3.2136   -7.8851 C   0  0  0  0  0  0  0  0  0  0  0  0
  -28.1698   -1.9189   -7.4165 C   0  0  0  0  0  0  0  0  0  0  0  0
  -27.6129   -0.8213   -8.6021 S   0  0  0  0  0  0  0  0  0  0  0  0
  -17.3726    3.2096  -16.4453 N   0  0  0  0  0  0  0  0  0  0  0  0
  -18.2024    2.6173  -15.5040 C   0  0  0  0  0  0  0  0  0  0  0  0
  -17.8348    2.1639  -14.4252 O   0  0  0  0  0  0  0  0  0  0  0  0
  -19.5251    2.5380  -15.9366 N   0  0  0  0  0  0  0  0  0  0  0  0
  -17.8193    3.7358  -17.1825 H   0  0  0  0  0  0  0  0  0  0  0  0
  -19.6235    2.3761  -16.9286 H   0  0  0  0  0  0  0  0  0  0  0  0
  -12.9531    0.9839  -16.8744 C   0  0  0  0  0  0  0  0  0  0  0  0
  -13.7797    2.1970  -16.5619 C   0  0  0  0  0  0  0  0  0  0  0  0
  -13.1449    3.3853  -16.1867 C   0  0  0  0  0  0  0  0  0  0  0  0
  -13.8974    4.5133  -15.8916 C   0  0  0  0  0  0  0  0  0  0  0  0
  -15.2889    4.4651  -15.9699 C   0  0  0  0  0  0  0  0  0  0  0  0
  -15.9561    3.2970  -16.3544 C   0  0  0  0  0  0  0  0  0  0  0  0
  -15.1866    2.1593  -16.6445 C   0  0  0  0  0  0  0  0  0  0  0  0
 30 31  1  0  0  0
 31 32  1  0  0  0
 31 36  2  0  0  0
 32 33  2  0  0  0
 33 34  1  0  0  0
 34 35  2  0  0  0
 35 24  1  0  0  0
 35 36  1  0  0  0
 24 25  1  0  0  0
 24 28  1  0  0  0
 25 26  2  0  0  0
 25 27  1  0  0  0
 27  1  1  0  0  0
 27 29  1  0  0  0
  1  2  1  0  0  0
  1  6  2  0  0  0
  2  3  2  0  0  0
  3  4  1  0  0  0
  4  7  1  0  0  0
  4  5  2  0  0  0
  7  8  1  0  0  0
  7 15  2  0  0  0
  8  9  2  0  0  0
  9 10  1  0  0  0
 10 11  2  0  0  0
 10 14  1  0  0  0
 11 19  1  0  0  0
 11 12  1  0  0  0
 19 20  2  0  0  0
 19 23  1  0  0  0
 20 21  1  0  0  0
 21 22  2  0  0  0
 22 23  1  0  0  0
 12 13  2  0  0  0
 13 14  1  0  0  0
 14 15  1  0  0  0
 15 16  1  0  0  0
 16 17  1  0  0  0
 16 18  1  0  0  0
  5  6  1  0  0  0
M  END
> <minimizedAffinity>
-8.53909

$$$$
