CHEMBL189851


 40 43  0  0  0  0  0  0  0  0999 V2000
  -28.6136   -5.8576   -7.4456 C   0  0  0  0  0  0  0  0  0  0  0  0
  -28.6089   -6.8348   -8.3904 N   0  0  0  0  0  0  0  0  0  0  0  0
  -29.3051   -7.9567   -8.1970 C   0  0  0  0  0  0  0  0  0  0  0  0
  -29.2291   -8.9426   -9.0865 N   0  0  0  0  0  0  0  0  0  0  0  0
  -29.9737  -10.0374   -8.9060 C   0  0  0  0  0  0  0  0  0  0  0  0
  -30.8322  -10.2004   -7.8908 N   0  0  0  0  0  0  0  0  0  0  0  0
  -30.8455   -9.2374   -6.9655 C   0  0  0  0  0  0  0  0  0  0  0  0
  -30.1069   -8.0827   -7.0650 C   0  0  0  0  0  0  0  0  0  0  0  0
  -30.1592   -7.0514   -6.1171 C   0  0  0  0  0  0  0  0  0  0  0  0
  -29.4089   -5.8829   -6.2807 C   0  0  0  0  0  0  0  0  0  0  0  0
  -27.4577   -2.6591   -8.5949 N   0  0  0  0  0  0  0  0  0  0  0  0
  -28.3768   -3.6725   -8.3905 C   0  0  0  0  0  0  0  0  0  0  0  0
  -29.5569   -3.5896   -8.7074 O   0  0  0  0  0  0  0  0  0  0  0  0
  -27.7927   -4.7548   -7.7541 N   0  0  0  0  0  0  0  0  0  0  0  0
  -26.5470   -2.9971   -8.8752 H   0  0  0  0  0  0  0  0  0  0  0  0
  -27.3395   -4.4046   -6.9183 H   0  0  0  0  0  0  0  0  0  0  0  0
  -27.6975   -1.3551  -10.6895 C   0  0  0  0  0  0  0  0  0  0  0  0
  -27.9157   -1.4151   -9.1878 C   0  0  0  0  0  0  0  0  0  0  0  0
  -29.6110   -4.7552   -5.3303 C   0  0  0  0  0  0  0  0  0  0  0  0
  -28.6823   -3.6949   -5.2397 C   0  0  0  0  0  0  0  0  0  0  0  0
  -28.7761   -2.7160   -4.2424 C   0  0  0  0  0  0  0  0  0  0  0  0
  -29.8441   -2.7484   -3.3444 C   0  0  0  0  0  0  0  0  0  0  0  0
  -30.7967   -3.7584   -3.4252 C   0  0  0  0  0  0  0  0  0  0  0  0
  -30.6596   -4.7551   -4.3962 C   0  0  0  0  0  0  0  0  0  0  0  0
  -27.8877   -1.6954   -4.0346 O   0  0  0  0  0  0  0  0  0  0  0  0
  -27.3222   -1.0799   -5.1861 C   0  0  0  0  0  0  0  0  0  0  0  0
  -31.8910   -3.9103   -2.6179 O   0  0  0  0  0  0  0  0  0  0  0  0
  -32.4677   -5.2076   -2.5593 C   0  0  0  0  0  0  0  0  0  0  0  0
  -29.8913  -11.1131   -9.7619 N   0  0  0  0  0  0  0  0  0  0  0  0
  -30.8004  -11.2655  -10.1943 H   0  0  0  0  0  0  0  0  0  0  0  0
  -28.7221  -11.2385  -10.6061 C   0  0  0  0  0  0  0  0  0  0  0  0
  -27.6787  -12.0812   -9.8622 C   0  0  0  0  0  0  0  0  0  0  0  0
  -26.4397  -11.2508   -9.4997 C   0  0  0  0  0  0  0  0  0  0  0  0
  -25.9382  -11.4983   -8.1372 N   0  0  0  0  0  0  0  0  0  0  0  0
  -24.5018  -11.8305   -8.0932 C   0  0  0  0  0  0  0  0  0  0  0  0
  -23.9949  -12.0427   -6.6460 C   0  0  0  0  0  0  0  0  0  0  0  0
  -24.2414  -10.9172   -5.7252 N   0  0  0  0  0  0  0  0  0  0  0  0
  -23.3428   -9.7972   -5.9875 C   0  0  0  0  0  0  0  0  0  0  0  0
  -25.6606  -10.5207   -5.8245 C   0  0  0  0  0  0  0  0  0  0  0  0
  -26.1957  -10.3301   -7.2666 C   0  0  0  0  0  0  0  0  0  0  0  0
 17 18  1  0  0  0
 18 11  1  0  0  0
 11 12  1  0  0  0
 11 15  1  0  0  0
 12 13  2  0  0  0
 12 14  1  0  0  0
 14  1  1  0  0  0
 14 16  1  0  0  0
  1  2  1  0  0  0
  1 10  2  0  0  0
  2  3  2  0  0  0
  3  4  1  0  0  0
  3  8  1  0  0  0
  4  5  2  0  0  0
  5 29  1  0  0  0
  5  6  1  0  0  0
 29 31  1  0  0  0
 29 30  1  0  0  0
 31 32  1  0  0  0
 32 33  1  0  0  0
 33 34  1  0  0  0
 34 35  1  0  0  0
 34 40  1  0  0  0
 35 36  1  0  0  0
 36 37  1  0  0  0
 37 38  1  0  0  0
 37 39  1  0  0  0
 39 40  1  0  0  0
  6  7  2  0  0  0
  7  8  1  0  0  0
  8  9  2  0  0  0
  9 10  1  0  0  0
 10 19  1  0  0  0
 19 20  1  0  0  0
 19 24  2  0  0  0
 20 21  2  0  0  0
 21 25  1  0  0  0
 21 22  1  0  0  0
 25 26  1  0  0  0
 22 23  2  0  0  0
 23 27  1  0  0  0
 23 24  1  0  0  0
 27 28  1  0  0  0
M  END
> <minimizedAffinity>
-7.59621

$$$$
