CHEMBL3911635


 37 40  0  0  0  0  0  0  0  0999 V2000
  -16.7916    2.1012  -14.9952 N   0  0  0  0  0  0  0  0  0  0  0  0
  -18.2292    1.9600  -15.1261 C   0  0  0  0  0  0  0  0  0  0  0  0
  -18.8820    3.1345  -15.5001 C   0  0  0  0  0  0  0  0  0  0  0  0
  -20.2009    3.3218  -15.1520 C   0  0  0  0  0  0  0  0  0  0  0  0
  -20.9612    2.3449  -14.5756 C   0  0  0  0  0  0  0  0  0  0  0  0
  -22.1471    2.7927  -14.1480 N   0  0  0  0  0  0  0  0  0  0  0  0
  -23.0426    1.8643  -13.7898 C   0  0  0  0  0  0  0  0  0  0  0  0
  -22.8441    0.5355  -13.9918 C   0  0  0  0  0  0  0  0  0  0  0  0
  -21.5689    0.0517  -14.2895 N   0  0  0  0  0  0  0  0  0  0  0  0
  -20.5389    1.0033  -14.5356 C   0  0  0  0  0  0  0  0  0  0  0  0
  -19.0767    0.8658  -14.7463 C   0  0  0  0  0  0  0  0  0  0  0  0
  -24.0838   -0.2591  -14.1969 C   0  0  0  0  0  0  0  0  0  0  0  0
  -24.7635   -0.7614  -15.3307 C   0  0  0  0  0  0  0  0  0  0  0  0
  -25.7825   -1.5841  -15.0223 N   0  0  0  0  0  0  0  0  0  0  0  0
  -25.7660   -1.6357  -13.6748 N   0  0  0  0  0  0  0  0  0  0  0  0
  -24.6645   -0.9937  -13.1601 C   0  0  0  0  0  0  0  0  0  0  0  0
  -26.9276   -2.0961  -12.9058 C   0  0  0  0  0  0  0  0  0  0  0  0
  -27.1299   -1.1922  -11.6850 C   0  0  0  0  0  0  0  0  0  0  0  0
  -28.2470   -2.2242  -13.6725 C   0  0  0  0  0  0  0  0  0  0  0  0
  -14.4501    1.0206  -17.7406 C   0  0  0  0  0  0  0  0  0  0  0  0
  -14.0060    2.2531  -18.2182 C   0  0  0  0  0  0  0  0  0  0  0  0
  -14.4463    3.4272  -17.6160 C   0  0  0  0  0  0  0  0  0  0  0  0
  -15.3351    3.3678  -16.5345 C   0  0  0  0  0  0  0  0  0  0  0  0
  -15.8088    2.1521  -16.0169 C   0  0  0  0  0  0  0  0  0  0  0  0
  -15.3546    0.9765  -16.6551 C   0  0  0  0  0  0  0  0  0  0  0  0
  -13.5866   -0.1326  -19.6419 C   0  0  0  0  0  0  0  0  0  0  0  0
  -14.0962   -0.1827  -18.3048 O   0  0  0  0  0  0  0  0  0  0  0  0
  -14.0986    4.6968  -17.9963 O   0  0  0  0  0  0  0  0  0  0  0  0
  -13.4435    4.8338  -19.2525 C   0  0  0  0  0  0  0  0  0  0  0  0
  -16.3645    1.4534  -13.6777 C   0  0  0  0  0  0  0  0  0  0  0  0
  -15.0763    0.5879  -13.6871 C   0  0  0  0  0  0  0  0  0  0  0  0
  -14.0760    1.1320  -12.7919 O   0  0  0  0  0  0  0  0  0  0  0  0
  -14.4559    1.1933  -11.8978 H   0  0  0  0  0  0  0  0  0  0  0  0
  -15.4409   -0.8833  -13.3300 C   0  0  0  0  0  0  0  0  0  0  0  0
  -14.4137   -1.7375  -13.5473 F   0  0  0  0  0  0  0  0  0  0  0  0
  -15.7895   -1.0049  -12.0288 F   0  0  0  0  0  0  0  0  0  0  0  0
  -16.4809   -1.3400  -14.0684 F   0  0  0  0  0  0  0  0  0  0  0  0
 26 27  1  0  0  0
 27 20  1  0  0  0
 20 21  1  0  0  0
 20 25  2  0  0  0
 21 22  2  0  0  0
 22 28  1  0  0  0
 22 23  1  0  0  0
 28 29  1  0  0  0
 23 24  2  0  0  0
 24  1  1  0  0  0
 24 25  1  0  0  0
  1 30  1  0  0  0
  1  2  1  0  0  0
 30 31  1  0  0  0
 31 32  1  0  0  0
 31 34  1  0  0  0
 32 33  1  0  0  0
 34 35  1  0  0  0
 34 36  1  0  0  0
 34 37  1  0  0  0
  2  3  1  0  0  0
  2 11  2  0  0  0
  3  4  2  0  0  0
  4  5  1  0  0  0
  5  6  1  0  0  0
  5 10  2  0  0  0
  6  7  2  0  0  0
  7  8  1  0  0  0
  8 12  1  0  0  0
  8  9  2  0  0  0
 12 13  1  0  0  0
 12 16  2  0  0  0
 13 14  2  0  0  0
 14 15  1  0  0  0
 15 17  1  0  0  0
 15 16  1  0  0  0
 17 18  1  0  0  0
 17 19  1  0  0  0
  9 10  1  0  0  0
 10 11  1  0  0  0
M  END
> <minimizedAffinity>
-9.13018

$$$$
