CHEMBL4226283


 35 37  0  0  0  0  0  0  0  0999 V2000
  -23.5506    0.3591  -13.0379 C   0  0  0  0  0  0  0  0  0  0  0  0
  -22.7466   -0.6279  -13.6084 C   0  0  0  0  0  0  0  0  0  0  0  0
  -22.8498   -1.9505  -13.1759 C   0  0  0  0  0  0  0  0  0  0  0  0
  -23.7381   -2.2935  -12.1532 C   0  0  0  0  0  0  0  0  0  0  0  0
  -24.5050   -1.3103  -11.5343 C   0  0  0  0  0  0  0  0  0  0  0  0
  -24.4154    0.0144  -11.9929 C   0  0  0  0  0  0  0  0  0  0  0  0
  -25.4577   -1.5620  -10.5318 N   0  0  0  0  0  0  0  0  0  0  0  0
  -25.0854   -1.5848   -9.5896 H   0  0  0  0  0  0  0  0  0  0  0  0
  -26.8121   -1.8119  -10.5618 C   0  0  0  0  0  0  0  0  0  0  0  0
  -27.9739   -1.1366  -11.5479 S   0  0  0  0  0  0  0  0  0  0  0  0
  -27.1844   -2.8530   -9.7312 N   0  0  0  0  0  0  0  0  0  0  0  0
  -27.2122   -3.7699  -10.1687 H   0  0  0  0  0  0  0  0  0  0  0  0
  -27.7560   -2.7391   -8.4458 C   0  0  0  0  0  0  0  0  0  0  0  0
  -28.2921   -3.8743   -7.8528 C   0  0  0  0  0  0  0  0  0  0  0  0
  -28.8832   -3.7825   -6.5905 C   0  0  0  0  0  0  0  0  0  0  0  0
  -28.9642   -2.5535   -5.9160 C   0  0  0  0  0  0  0  0  0  0  0  0
  -29.8538   -2.5833   -4.2407 Br  0  0  0  0  0  0  0  0  0  0  0  0
  -28.4403   -1.3963   -6.4971 C   0  0  0  0  0  0  0  0  0  0  0  0
  -27.8493   -1.5123   -7.7756 C   0  0  0  0  0  0  0  0  0  0  0  0
  -28.4375   -0.0176   -5.8835 C   0  0  0  0  0  0  0  0  0  0  0  0
  -29.6235    0.4379   -5.4051 F   0  0  0  0  0  0  0  0  0  0  0  0
  -27.5736    0.0549   -4.8290 F   0  0  0  0  0  0  0  0  0  0  0  0
  -28.0109    0.9320   -6.7642 F   0  0  0  0  0  0  0  0  0  0  0  0
  -23.4591    2.0449  -13.6146 S   0  0  0  0  0  0  0  0  0  0  0  0
  -19.1445    2.3257  -15.0183 C   0  0  0  0  0  0  0  0  0  0  0  0
  -19.8167    1.1124  -15.1270 C   0  0  0  0  0  0  0  0  0  0  0  0
  -21.1439    1.0262  -14.6955 C   0  0  0  0  0  0  0  0  0  0  0  0
  -21.7645    2.1589  -14.1723 C   0  0  0  0  0  0  0  0  0  0  0  0
  -21.1176    3.3372  -14.0369 N   0  0  0  0  0  0  0  0  0  0  0  0
  -19.8255    3.3960  -14.4528 C   0  0  0  0  0  0  0  0  0  0  0  0
  -15.9678    4.1241  -16.0007 C   0  0  0  0  0  0  0  0  0  0  0  0
  -17.3348    3.8274  -15.6485 N   0  0  0  0  0  0  0  0  0  0  0  0
  -17.7400    2.5230  -15.4493 C   0  0  0  0  0  0  0  0  0  0  0  0
  -16.9989    1.5579  -15.5790 O   0  0  0  0  0  0  0  0  0  0  0  0
  -17.9304    4.5923  -15.3644 H   0  0  0  0  0  0  0  0  0  0  0  0
 31 32  1  0  0  0
 32 33  1  0  0  0
 32 35  1  0  0  0
 33 34  2  0  0  0
 33 25  1  0  0  0
 25 26  1  0  0  0
 25 30  2  0  0  0
 26 27  2  0  0  0
 27 28  1  0  0  0
 28 24  1  0  0  0
 28 29  2  0  0  0
 24  1  1  0  0  0
  1  2  1  0  0  0
  1  6  2  0  0  0
  2  3  2  0  0  0
  3  4  1  0  0  0
  4  5  2  0  0  0
  5  7  1  0  0  0
  5  6  1  0  0  0
  7  9  1  0  0  0
  7  8  1  0  0  0
  9 10  2  0  0  0
  9 11  1  0  0  0
 11 13  1  0  0  0
 11 12  1  0  0  0
 13 14  1  0  0  0
 13 19  2  0  0  0
 14 15  2  0  0  0
 15 16  1  0  0  0
 16 17  1  0  0  0
 16 18  2  0  0  0
 18 20  1  0  0  0
 18 19  1  0  0  0
 20 21  1  0  0  0
 20 22  1  0  0  0
 20 23  1  0  0  0
 29 30  1  0  0  0
M  END
> <minimizedAffinity>
-10.92373

$$$$
