CHEMBL355282


 34 38  0  0  0  0  0  0  0  0999 V2000
  -13.6433   -1.5220  -13.4465 C   0  0  0  0  0  0  0  0  0  0  0  0
  -13.4181   -2.8603  -13.1362 C   0  0  0  0  0  0  0  0  0  0  0  0
  -14.4021   -3.6537  -12.5055 C   0  0  0  0  0  0  0  0  0  0  0  0
  -14.2103   -4.9962  -12.1507 C   0  0  0  0  0  0  0  0  0  0  0  0
  -15.1884   -5.7238  -11.5830 N   0  0  0  0  0  0  0  0  0  0  0  0
  -16.3439   -5.0970  -11.3371 C   0  0  0  0  0  0  0  0  0  0  0  0
  -16.6072   -3.8129  -11.5818 N   0  0  0  0  0  0  0  0  0  0  0  0
  -15.6327   -3.0987  -12.1544 C   0  0  0  0  0  0  0  0  0  0  0  0
  -15.8268   -1.7495  -12.4025 C   0  0  0  0  0  0  0  0  0  0  0  0
  -14.8644   -0.9563  -13.0525 C   0  0  0  0  0  0  0  0  0  0  0  0
  -11.8116    0.0596  -13.2858 C   0  0  0  0  0  0  0  0  0  0  0  0
  -12.7159   -0.7302  -14.0533 O   0  0  0  0  0  0  0  0  0  0  0  0
  -12.9386   -5.5972  -12.3592 N   0  0  0  0  0  0  0  0  0  0  0  0
  -12.3227   -4.9735  -12.8657 H   0  0  0  0  0  0  0  0  0  0  0  0
  -12.7510   -6.9505  -12.7233 C   0  0  0  0  0  0  0  0  0  0  0  0
  -12.4094   -7.8956  -11.7319 C   0  0  0  0  0  0  0  0  0  0  0  0
  -12.3097   -9.2526  -12.0088 C   0  0  0  0  0  0  0  0  0  0  0  0
  -12.5294   -9.7267  -13.2977 C   0  0  0  0  0  0  0  0  0  0  0  0
  -12.8017   -8.7908  -14.3073 C   0  0  0  0  0  0  0  0  0  0  0  0
  -12.8878   -7.4167  -14.0552 C   0  0  0  0  0  0  0  0  0  0  0  0
  -13.1455   -6.7861  -15.3109 C   0  0  0  0  0  0  0  0  0  0  0  0
  -13.2483   -7.7696  -16.2690 C   0  0  0  0  0  0  0  0  0  0  0  0
  -13.0574   -8.9740  -15.6499 N   0  0  0  0  0  0  0  0  0  0  0  0
  -13.1398  -10.2642  -16.2984 C   0  0  0  0  0  0  0  0  0  0  0  0
  -15.2669    0.3471  -13.1983 O   0  0  0  0  0  0  0  0  0  0  0  0
  -16.6641    0.6438  -13.2656 C   0  0  0  0  0  0  0  0  0  0  0  0
  -17.0804    1.3063  -14.5818 C   0  0  0  0  0  0  0  0  0  0  0  0
  -18.3101    2.2019  -14.3843 C   0  0  0  0  0  0  0  0  0  0  0  0
  -19.3630    2.0029  -15.3974 N   0  0  0  0  0  0  0  0  0  0  0  0
  -20.2552    3.1897  -15.4496 C   0  0  0  0  0  0  0  0  0  0  0  0
  -21.1944    3.3203  -14.2343 C   0  0  0  0  0  0  0  0  0  0  0  0
  -21.9842    2.1385  -14.0515 O   0  0  0  0  0  0  0  0  0  0  0  0
  -21.1478    0.9821  -13.9171 C   0  0  0  0  0  0  0  0  0  0  0  0
  -20.2234    0.8246  -15.1356 C   0  0  0  0  0  0  0  0  0  0  0  0
 11 12  1  0  0  0
 12  1  1  0  0  0
  1  2  1  0  0  0
  1 10  2  0  0  0
  2  3  2  0  0  0
  3  4  1  0  0  0
  3  8  1  0  0  0
  4 13  1  0  0  0
  4  5  2  0  0  0
 13 15  1  0  0  0
 13 14  1  0  0  0
 15 16  1  0  0  0
 15 20  2  0  0  0
 16 17  2  0  0  0
 17 18  1  0  0  0
 18 19  2  0  0  0
 19 20  1  0  0  0
 19 23  1  0  0  0
 20 21  1  0  0  0
 21 22  2  0  0  0
 22 23  1  0  0  0
 23 24  1  0  0  0
  5  6  1  0  0  0
  6  7  2  0  0  0
  7  8  1  0  0  0
  8  9  2  0  0  0
  9 10  1  0  0  0
 10 25  1  0  0  0
 25 26  1  0  0  0
 26 27  1  0  0  0
 27 28  1  0  0  0
 28 29  1  0  0  0
 29 30  1  0  0  0
 29 34  1  0  0  0
 30 31  1  0  0  0
 31 32  1  0  0  0
 32 33  1  0  0  0
 33 34  1  0  0  0
M  END
> <minimizedAffinity>
-7.25072

$$$$
