CHEMBL3644558


 38 41  0  0  0  0  0  0  0  0999 V2000
  -28.1800   11.7832  -12.1002 C   0  0  0  0  0  0  0  0  0  0  0  0
  -27.5624   11.9161  -10.8608 C   0  0  0  0  0  0  0  0  0  0  0  0
  -26.2710   12.2873  -10.6838 N   0  0  0  0  0  0  0  0  0  0  0  0
  -25.5430   12.5031  -11.8008 C   0  0  0  0  0  0  0  0  0  0  0  0
  -26.0450   12.3901  -13.0962 C   0  0  0  0  0  0  0  0  0  0  0  0
  -27.4082   12.0525  -13.2479 C   0  0  0  0  0  0  0  0  0  0  0  0
  -27.9921   11.9360  -14.6392 C   0  0  0  0  0  0  0  0  0  0  0  0
  -27.1559   12.6584  -15.6890 C   0  0  0  0  0  0  0  0  0  0  0  0
  -25.7555   12.2838  -15.5444 N   0  0  0  0  0  0  0  0  0  0  0  0
  -25.1273   12.6581  -14.2723 C   0  0  0  0  0  0  0  0  0  0  0  0
  -25.1466   11.4116  -16.4297 C   0  0  0  0  0  0  0  0  0  0  0  0
  -25.4709   10.0442  -16.4087 C   0  0  0  0  0  0  0  0  0  0  0  0
  -24.8471    9.1279  -17.2530 C   0  0  0  0  0  0  0  0  0  0  0  0
  -23.8726    9.5633  -18.1397 C   0  0  0  0  0  0  0  0  0  0  0  0
  -23.5157   10.9166  -18.1882 C   0  0  0  0  0  0  0  0  0  0  0  0
  -24.1608   11.8324  -17.3472 C   0  0  0  0  0  0  0  0  0  0  0  0
  -22.4831   11.3021  -19.1875 C   0  0  0  0  0  0  0  0  0  0  0  0
  -22.8914   11.5723  -20.3164 O   0  0  0  0  0  0  0  0  0  0  0  0
  -21.1510   11.2306  -18.8019 N   0  0  0  0  0  0  0  0  0  0  0  0
  -20.9447   10.7793  -17.9185 H   0  0  0  0  0  0  0  0  0  0  0  0
  -20.0542   11.4351  -19.6827 C   0  0  0  0  0  0  0  0  0  0  0  0
  -20.1793   12.1249  -20.8922 C   0  0  0  0  0  0  0  0  0  0  0  0
  -19.1144   12.1966  -21.7885 C   0  0  0  0  0  0  0  0  0  0  0  0
  -17.9110   11.5644  -21.4916 C   0  0  0  0  0  0  0  0  0  0  0  0
  -17.7406   10.8859  -20.2755 C   0  0  0  0  0  0  0  0  0  0  0  0
  -18.8106   10.8706  -19.3550 C   0  0  0  0  0  0  0  0  0  0  0  0
  -16.4406   10.1337  -20.0347 C   0  0  0  0  0  0  0  0  0  0  0  0
  -16.4071    8.7700  -20.7228 C   0  0  0  0  0  0  0  0  0  0  0  0
  -15.2122   10.9606  -20.4301 C   0  0  0  0  0  0  0  0  0  0  0  0
  -30.5796   12.2434  -12.3075 N   0  0  0  0  0  0  0  0  0  0  0  0
  -29.5856   11.2994  -12.1900 C   0  0  0  0  0  0  0  0  0  0  0  0
  -29.8422   10.0997  -12.1693 O   0  0  0  0  0  0  0  0  0  0  0  0
  -30.3818   13.2270  -12.4622 H   0  0  0  0  0  0  0  0  0  0  0  0
  -31.9675   11.8194  -12.4188 C   0  0  0  0  0  0  0  0  0  0  0  0
  -32.5103   12.1022  -13.8098 C   0  0  0  0  0  0  0  0  0  0  0  0
  -31.8126   12.2106  -14.8119 O   0  0  0  0  0  0  0  0  0  0  0  0
  -34.4852   11.2213  -12.9147 C   0  0  0  0  0  0  0  0  0  0  0  0
  -33.8689   12.1957  -13.7674 O   0  0  0  0  0  0  0  0  0  0  0  0
 37 38  1  0  0  0
 38 35  1  0  0  0
 35 36  2  0  0  0
 35 34  1  0  0  0
 34 30  1  0  0  0
 30 31  1  0  0  0
 30 33  1  0  0  0
 31 32  2  0  0  0
 31  1  1  0  0  0
  1  2  1  0  0  0
  1  6  2  0  0  0
  2  3  2  0  0  0
  3  4  1  0  0  0
  4  5  2  0  0  0
  5  6  1  0  0  0
  5 10  1  0  0  0
  6  7  1  0  0  0
  7  8  1  0  0  0
  8  9  1  0  0  0
  9 11  1  0  0  0
  9 10  1  0  0  0
 11 12  1  0  0  0
 11 16  2  0  0  0
 12 13  2  0  0  0
 13 14  1  0  0  0
 14 15  2  0  0  0
 15 17  1  0  0  0
 15 16  1  0  0  0
 17 18  2  0  0  0
 17 19  1  0  0  0
 19 21  1  0  0  0
 19 20  1  0  0  0
 21 22  1  0  0  0
 21 26  2  0  0  0
 22 23  2  0  0  0
 23 24  1  0  0  0
 24 25  2  0  0  0
 25 27  1  0  0  0
 25 26  1  0  0  0
 27 28  1  0  0  0
 27 29  1  0  0  0
M  END
> <minimizedAffinity>
-3.55669

$$$$
