CHEMBL3656078


 54 57  0  0  0  0  0  0  0  0999 V2000
  -12.2054   -3.1013  -14.3633 C   0  0  0  0  0  0  0  0  0  0  0  0
  -11.0425   -2.4031  -14.0850 C   0  0  0  0  0  0  0  0  0  0  0  0
  -11.2903   -1.0591  -14.2644 N   0  0  0  0  0  0  0  0  0  0  0  0
  -12.5741   -0.8666  -14.7175 C   0  0  0  0  0  0  0  0  0  0  0  0
  -13.1517   -2.1202  -14.7860 C   0  0  0  0  0  0  0  0  0  0  0  0
  -10.6411   -0.3015  -14.0915 H   0  0  0  0  0  0  0  0  0  0  0  0
  -13.1412    0.4461  -14.9985 C   0  0  0  0  0  0  0  0  0  0  0  0
  -14.2808    0.5791  -15.7801 C   0  0  0  0  0  0  0  0  0  0  0  0
  -14.8858    1.8299  -15.8801 C   0  0  0  0  0  0  0  0  0  0  0  0
  -14.2788    2.9205  -15.2689 C   0  0  0  0  0  0  0  0  0  0  0  0
  -13.1151    2.7007  -14.5459 C   0  0  0  0  0  0  0  0  0  0  0  0
  -12.5296    1.4887  -14.3940 N   0  0  0  0  0  0  0  0  0  0  0  0
  -16.0559    2.0703  -16.5769 O   0  0  0  0  0  0  0  0  0  0  0  0
  -17.2496    2.0707  -15.8904 C   0  0  0  0  0  0  0  0  0  0  0  0
  -17.6930    0.9830  -15.1438 C   0  0  0  0  0  0  0  0  0  0  0  0
  -18.9663    0.9971  -14.5785 C   0  0  0  0  0  0  0  0  0  0  0  0
  -19.7935    2.1138  -14.6631 C   0  0  0  0  0  0  0  0  0  0  0  0
  -19.3012    3.2516  -15.3210 C   0  0  0  0  0  0  0  0  0  0  0  0
  -18.0283    3.2232  -15.9301 C   0  0  0  0  0  0  0  0  0  0  0  0
  -21.1206    2.1280  -14.1569 N   0  0  0  0  0  0  0  0  0  0  0  0
  -21.9093    1.0148  -13.9470 C   0  0  0  0  0  0  0  0  0  0  0  0
  -21.5361   -0.1562  -14.0778 O   0  0  0  0  0  0  0  0  0  0  0  0
  -23.2086    1.3364  -13.5896 N   0  0  0  0  0  0  0  0  0  0  0  0
  -21.5039    3.0223  -13.8714 H   0  0  0  0  0  0  0  0  0  0  0  0
  -23.5924    2.1317  -14.0881 H   0  0  0  0  0  0  0  0  0  0  0  0
  -24.1373    0.2835  -13.3567 C   0  0  0  0  0  0  0  0  0  0  0  0
  -24.6026   -0.0073  -12.0665 C   0  0  0  0  0  0  0  0  0  0  0  0
  -25.4278   -1.1165  -11.8364 C   0  0  0  0  0  0  0  0  0  0  0  0
  -25.9097   -1.4356  -10.4498 C   0  0  0  0  0  0  0  0  0  0  0  0
  -25.7806   -1.9411  -12.9125 C   0  0  0  0  0  0  0  0  0  0  0  0
  -25.3426   -1.6401  -14.2046 C   0  0  0  0  0  0  0  0  0  0  0  0
  -24.5439   -0.5202  -14.4206 C   0  0  0  0  0  0  0  0  0  0  0  0
  -24.1011   -0.2588  -15.6602 F   0  0  0  0  0  0  0  0  0  0  0  0
  -13.7419   -4.9488  -14.6863 N   0  0  0  0  0  0  0  0  0  0  0  0
  -12.5030   -4.5251  -14.2524 C   0  0  0  0  0  0  0  0  0  0  0  0
  -11.6710   -5.3104  -13.7959 O   0  0  0  0  0  0  0  0  0  0  0  0
  -14.3834   -4.2926  -15.1113 H   0  0  0  0  0  0  0  0  0  0  0  0
  -14.0884   -6.3766  -14.6720 C   0  0  0  0  0  0  0  0  0  0  0  0
  -13.8287   -6.9677  -16.0666 C   0  0  0  0  0  0  0  0  0  0  0  0
  -14.3794   -6.6013  -17.0989 O   0  0  0  0  0  0  0  0  0  0  0  0
  -13.1867   -9.0964  -15.2173 C   0  0  0  0  0  0  0  0  0  0  0  0
  -12.8771   -7.9366  -15.9879 O   0  0  0  0  0  0  0  0  0  0  0  0
  -15.5414   -6.5780  -14.1929 C   0  0  0  0  0  0  0  0  0  0  0  0
  -16.2729   -5.3427  -13.6722 C   0  0  0  0  0  0  0  0  0  0  0  0
  -16.1978   -5.1642  -12.1766 C   0  0  0  0  0  0  0  0  0  0  0  0
  -17.1212   -5.3866  -11.4057 O   0  0  0  0  0  0  0  0  0  0  0  0
  -15.0086   -4.6005  -11.8341 O   0  0  0  0  0  0  0  0  0  0  0  0
  -14.1159   -5.4741  -11.1254 C   0  0  0  0  0  0  0  0  0  0  0  0
  -13.1231   -4.6096  -10.3330 C   0  0  0  0  0  0  0  0  0  0  0  0
  -13.0254   -3.2841  -10.8769 O   0  0  0  0  0  0  0  0  0  0  0  0
  -13.9208   -2.8945  -10.8890 H   0  0  0  0  0  0  0  0  0  0  0  0
  -13.5122   -4.5227   -8.8567 C   0  0  0  0  0  0  0  0  0  0  0  0
  -13.9824   -5.7746   -8.3588 O   0  0  0  0  0  0  0  0  0  0  0  0
  -14.3339   -6.2858   -9.1101 H   0  0  0  0  0  0  0  0  0  0  0  0
 41 42  1  0  0  0
 42 39  1  0  0  0
 39 40  2  0  0  0
 38 34  1  0  0  0
 38 43  1  0  0  0
 38 39  1  0  0  0
 43 44  1  0  0  0
 44 45  1  0  0  0
 45 46  2  0  0  0
 45 47  1  0  0  0
 47 48  1  0  0  0
 48 49  1  0  0  0
 49 50  1  0  0  0
 49 52  1  0  0  0
 50 51  1  0  0  0
 52 53  1  0  0  0
 53 54  1  0  0  0
 34 35  1  0  0  0
 34 37  1  0  0  0
 35 36  2  0  0  0
 35  1  1  0  0  0
  1  2  2  0  0  0
  1  5  1  0  0  0
  2  3  1  0  0  0
  3  4  1  0  0  0
  3  6  1  0  0  0
  4  7  1  0  0  0
  4  5  2  0  0  0
  7  8  1  0  0  0
  7 12  2  0  0  0
  8  9  2  0  0  0
  9 13  1  0  0  0
  9 10  1  0  0  0
 13 14  1  0  0  0
 14 15  1  0  0  0
 14 19  2  0  0  0
 15 16  2  0  0  0
 16 17  1  0  0  0
 17 20  1  0  0  0
 17 18  2  0  0  0
 20 21  1  0  0  0
 20 24  1  0  0  0
 21 22  2  0  0  0
 21 23  1  0  0  0
 23 26  1  0  0  0
 23 25  1  0  0  0
 26 27  1  0  0  0
 26 32  2  0  0  0
 27 28  2  0  0  0
 28 29  1  0  0  0
 28 30  1  0  0  0
 30 31  2  0  0  0
 31 32  1  0  0  0
 32 33  1  0  0  0
 18 19  1  0  0  0
 10 11  2  0  0  0
 11 12  1  0  0  0
M  END
> <minimizedAffinity>
-8.70110

$$$$
