CHEMBL194746


 30 33  0  0  0  0  0  0  0  0999 V2000
  -28.6040   -4.8023   -6.8393 C   0  0  0  0  0  0  0  0  0  0  0  0
  -28.1037   -4.9721   -8.0853 N   0  0  0  0  0  0  0  0  0  0  0  0
  -27.7822   -3.8937   -8.8759 N   0  0  0  0  0  0  0  0  0  0  0  0
  -27.8667   -2.6363   -8.3991 C   0  0  0  0  0  0  0  0  0  0  0  0
  -28.3395   -2.3974   -7.0916 C   0  0  0  0  0  0  0  0  0  0  0  0
  -28.4074   -1.0963   -6.5292 C   0  0  0  0  0  0  0  0  0  0  0  0
  -28.9836   -0.8596   -5.2826 C   0  0  0  0  0  0  0  0  0  0  0  0
  -29.5711   -1.9070   -4.5985 C   0  0  0  0  0  0  0  0  0  0  0  0
  -29.5050   -3.1945   -5.1268 C   0  0  0  0  0  0  0  0  0  0  0  0
  -28.8156   -3.4948   -6.3328 C   0  0  0  0  0  0  0  0  0  0  0  0
  -29.2079   -8.6011   -4.8315 C   0  0  0  0  0  0  0  0  0  0  0  0
  -30.0349   -8.2312   -5.8914 C   0  0  0  0  0  0  0  0  0  0  0  0
  -29.8920   -6.9738   -6.4904 C   0  0  0  0  0  0  0  0  0  0  0  0
  -28.8743   -6.0770   -6.1109 C   0  0  0  0  0  0  0  0  0  0  0  0
  -28.1228   -6.4358   -4.9737 C   0  0  0  0  0  0  0  0  0  0  0  0
  -28.2893   -7.6745   -4.3351 C   0  0  0  0  0  0  0  0  0  0  0  0
  -30.0928  -10.8667   -4.9888 N   0  0  0  0  0  0  0  0  0  0  0  0
  -29.3434   -9.9743   -4.2768 C   0  0  0  0  0  0  0  0  0  0  0  0
  -28.8619  -10.2833   -3.1933 O   0  0  0  0  0  0  0  0  0  0  0  0
  -30.2850  -11.7493   -4.5347 H   0  0  0  0  0  0  0  0  0  0  0  0
  -30.7060  -10.5952   -5.7486 H   0  0  0  0  0  0  0  0  0  0  0  0
  -27.5127   -1.5388   -9.2272 N   0  0  0  0  0  0  0  0  0  0  0  0
  -27.1928   -0.7616   -8.6644 H   0  0  0  0  0  0  0  0  0  0  0  0
  -26.9693   -1.5787  -10.5256 C   0  0  0  0  0  0  0  0  0  0  0  0
  -27.7780   -1.6828  -11.6664 C   0  0  0  0  0  0  0  0  0  0  0  0
  -27.2247   -1.6474  -12.9512 C   0  0  0  0  0  0  0  0  0  0  0  0
  -25.8503   -1.5008  -13.1072 C   0  0  0  0  0  0  0  0  0  0  0  0
  -25.1646   -1.4677  -14.6846 Cl  0  0  0  0  0  0  0  0  0  0  0  0
  -25.0294   -1.3708  -11.9909 C   0  0  0  0  0  0  0  0  0  0  0  0
  -25.5901   -1.3959  -10.7079 C   0  0  0  0  0  0  0  0  0  0  0  0
 17 18  1  0  0  0
 17 20  1  0  0  0
 17 21  1  0  0  0
 18 19  2  0  0  0
 18 11  1  0  0  0
 11 12  1  0  0  0
 11 16  2  0  0  0
 12 13  2  0  0  0
 13 14  1  0  0  0
 14  1  1  0  0  0
 14 15  2  0  0  0
  1  2  1  0  0  0
  1 10  2  0  0  0
  2  3  2  0  0  0
  3  4  1  0  0  0
  4 22  1  0  0  0
  4  5  2  0  0  0
 22 24  1  0  0  0
 22 23  1  0  0  0
 24 25  1  0  0  0
 24 30  2  0  0  0
 25 26  2  0  0  0
 26 27  1  0  0  0
 27 28  1  0  0  0
 27 29  2  0  0  0
 29 30  1  0  0  0
  5  6  1  0  0  0
  5 10  1  0  0  0
  6  7  2  0  0  0
  7  8  1  0  0  0
  8  9  2  0  0  0
  9 10  1  0  0  0
 15 16  1  0  0  0
M  END
> <minimizedAffinity>
-9.02940

$$$$
