CHEMBL3660290


 43 46  0  0  0  0  0  0  0  0999 V2000
  -15.2050    1.0615  -15.2708 C   0  0  0  0  0  0  0  0  0  0  0  0
  -13.8443    1.3346  -15.4011 C   0  0  0  0  0  0  0  0  0  0  0  0
  -12.9628    0.6614  -14.5794 C   0  0  0  0  0  0  0  0  0  0  0  0
  -13.3314   -0.2960  -13.7031 N   0  0  0  0  0  0  0  0  0  0  0  0
  -14.6567   -0.5934  -13.6475 C   0  0  0  0  0  0  0  0  0  0  0  0
  -15.6203    0.0569  -14.4061 C   0  0  0  0  0  0  0  0  0  0  0  0
  -14.9831   -1.6708  -12.7219 C   0  0  0  0  0  0  0  0  0  0  0  0
  -14.5580   -2.9841  -12.6557 C   0  0  0  0  0  0  0  0  0  0  0  0
  -15.1621   -3.6083  -11.5248 C   0  0  0  0  0  0  0  0  0  0  0  0
  -15.9554   -2.6435  -10.9322 C   0  0  0  0  0  0  0  0  0  0  0  0
  -15.8324   -1.4847  -11.6520 N   0  0  0  0  0  0  0  0  0  0  0  0
  -16.2712   -0.5959  -11.4428 H   0  0  0  0  0  0  0  0  0  0  0  0
  -14.9454   -4.9616  -11.0391 C   0  0  0  0  0  0  0  0  0  0  0  0
  -14.5706   -5.2355   -9.9039 O   0  0  0  0  0  0  0  0  0  0  0  0
  -15.1373   -5.8811  -12.0320 O   0  0  0  0  0  0  0  0  0  0  0  0
  -14.1291   -6.8965  -12.1261 C   0  0  0  0  0  0  0  0  0  0  0  0
  -14.1600   -7.4907  -13.5415 C   0  0  0  0  0  0  0  0  0  0  0  0
  -14.7222   -8.8090  -13.5430 O   0  0  0  0  0  0  0  0  0  0  0  0
  -15.6208   -8.7626  -13.1658 H   0  0  0  0  0  0  0  0  0  0  0  0
  -14.9494   -6.5976  -14.5016 C   0  0  0  0  0  0  0  0  0  0  0  0
  -16.3003   -7.0326  -14.6426 O   0  0  0  0  0  0  0  0  0  0  0  0
  -16.3283   -7.9926  -14.4816 H   0  0  0  0  0  0  0  0  0  0  0  0
  -16.1822    1.7169  -15.9862 O   0  0  0  0  0  0  0  0  0  0  0  0
  -20.0625    1.8993  -14.4554 C   0  0  0  0  0  0  0  0  0  0  0  0
  -19.2285    3.0256  -14.4624 C   0  0  0  0  0  0  0  0  0  0  0  0
  -17.9294    2.9366  -14.9700 C   0  0  0  0  0  0  0  0  0  0  0  0
  -17.4686    1.7295  -15.4891 C   0  0  0  0  0  0  0  0  0  0  0  0
  -18.3231    0.6197  -15.5251 C   0  0  0  0  0  0  0  0  0  0  0  0
  -19.5968    0.6881  -14.9590 C   0  0  0  0  0  0  0  0  0  0  0  0
  -23.4456    1.0316  -13.5143 N   0  0  0  0  0  0  0  0  0  0  0  0
  -22.1466    0.8104  -13.9413 C   0  0  0  0  0  0  0  0  0  0  0  0
  -21.6420   -0.2861  -14.1552 O   0  0  0  0  0  0  0  0  0  0  0  0
  -21.4085    1.9877  -14.0260 N   0  0  0  0  0  0  0  0  0  0  0  0
  -23.6716    1.9634  -13.2005 H   0  0  0  0  0  0  0  0  0  0  0  0
  -21.5750    2.6155  -13.2527 H   0  0  0  0  0  0  0  0  0  0  0  0
  -26.2919   -1.4152  -10.2851 C   0  0  0  0  0  0  0  0  0  0  0  0
  -25.8014   -1.2070  -11.6888 C   0  0  0  0  0  0  0  0  0  0  0  0
  -26.2554   -2.0454  -12.7116 C   0  0  0  0  0  0  0  0  0  0  0  0
  -25.8339   -1.8357  -14.0174 C   0  0  0  0  0  0  0  0  0  0  0  0
  -24.9491   -0.8027  -14.3094 C   0  0  0  0  0  0  0  0  0  0  0  0
  -24.7095   -0.5903  -15.6090 F   0  0  0  0  0  0  0  0  0  0  0  0
  -24.4195    0.0187  -13.3017 C   0  0  0  0  0  0  0  0  0  0  0  0
  -24.8851   -0.1780  -11.9895 C   0  0  0  0  0  0  0  0  0  0  0  0
 36 37  1  0  0  0
 37 38  1  0  0  0
 37 43  2  0  0  0
 38 39  2  0  0  0
 39 40  1  0  0  0
 40 41  1  0  0  0
 40 42  2  0  0  0
 42 30  1  0  0  0
 42 43  1  0  0  0
 30 31  1  0  0  0
 30 34  1  0  0  0
 31 32  2  0  0  0
 31 33  1  0  0  0
 33 24  1  0  0  0
 33 35  1  0  0  0
 24 25  1  0  0  0
 24 29  2  0  0  0
 25 26  2  0  0  0
 26 27  1  0  0  0
 27 23  1  0  0  0
 27 28  2  0  0  0
 23  1  1  0  0  0
  1  2  1  0  0  0
  1  6  2  0  0  0
  2  3  2  0  0  0
  3  4  1  0  0  0
  4  5  2  0  0  0
  5  7  1  0  0  0
  5  6  1  0  0  0
  7  8  2  0  0  0
  7 11  1  0  0  0
  8  9  1  0  0  0
  9 13  1  0  0  0
  9 10  2  0  0  0
 13 14  2  0  0  0
 13 15  1  0  0  0
 15 16  1  0  0  0
 16 17  1  0  0  0
 17 18  1  0  0  0
 17 20  1  0  0  0
 18 19  1  0  0  0
 20 21  1  0  0  0
 21 22  1  0  0  0
 10 11  1  0  0  0
 11 12  1  0  0  0
 28 29  1  0  0  0
M  END
> <minimizedAffinity>
-9.65038

$$$$
