CHEMBL3706820


 32 35  0  0  0  0  0  0  0  0999 V2000
  -12.7995   -4.7547  -12.4545 C   0  0  0  0  0  0  0  0  0  0  0  0
  -12.2992   -4.9248  -13.7689 C   0  0  0  0  0  0  0  0  0  0  0  0
  -12.2374   -3.9061  -14.7160 C   0  0  0  0  0  0  0  0  0  0  0  0
  -11.8284   -4.1704  -15.9629 N   0  0  0  0  0  0  0  0  0  0  0  0
  -11.8270   -3.1509  -16.8314 C   0  0  0  0  0  0  0  0  0  0  0  0
  -12.1612   -1.8859  -16.5612 N   0  0  0  0  0  0  0  0  0  0  0  0
  -12.5456   -1.6250  -15.2981 C   0  0  0  0  0  0  0  0  0  0  0  0
  -12.6383   -2.6336  -14.3204 C   0  0  0  0  0  0  0  0  0  0  0  0
  -13.1361   -2.4407  -13.0127 C   0  0  0  0  0  0  0  0  0  0  0  0
  -13.2298   -3.4800  -12.0711 C   0  0  0  0  0  0  0  0  0  0  0  0
  -12.8558   -0.2845  -14.9365 N   0  0  0  0  0  0  0  0  0  0  0  0
  -12.2354    0.3536  -15.4414 H   0  0  0  0  0  0  0  0  0  0  0  0
  -14.1432    0.2160  -14.9159 C   0  0  0  0  0  0  0  0  0  0  0  0
  -14.9206    0.3363  -13.8347 C   0  0  0  0  0  0  0  0  0  0  0  0
  -16.2808    0.9049  -13.8528 C   0  0  0  0  0  0  0  0  0  0  0  0
  -16.8874    0.9823  -12.7850 O   0  0  0  0  0  0  0  0  0  0  0  0
  -16.8572    1.3592  -15.1813 C   0  0  0  0  0  0  0  0  0  0  0  0
  -16.0596    1.2346  -16.2544 C   0  0  0  0  0  0  0  0  0  0  0  0
  -14.6786    0.7228  -16.2128 C   0  0  0  0  0  0  0  0  0  0  0  0
  -13.9780    0.7098  -17.2207 O   0  0  0  0  0  0  0  0  0  0  0  0
  -18.1576    1.8900  -15.2194 N   0  0  0  0  0  0  0  0  0  0  0  0
  -18.5161    3.3068  -15.1539 C   0  0  0  0  0  0  0  0  0  0  0  0
  -19.8383    3.3055  -14.4027 C   0  0  0  0  0  0  0  0  0  0  0  0
  -20.5259    2.0668  -14.9412 C   0  0  0  0  0  0  0  0  0  0  0  0
  -19.3838    1.0727  -15.1428 C   0  0  0  0  0  0  0  0  0  0  0  0
  -13.8921   -3.0436  -10.9593 O   0  0  0  0  0  0  0  0  0  0  0  0
  -15.3043   -3.1005  -10.8670 C   0  0  0  0  0  0  0  0  0  0  0  0
  -12.8057   -5.9576  -11.7907 O   0  0  0  0  0  0  0  0  0  0  0  0
  -14.0090   -6.6938  -11.7734 C   0  0  0  0  0  0  0  0  0  0  0  0
  -13.8834   -8.0937  -12.3565 C   0  0  0  0  0  0  0  0  0  0  0  0
  -15.4797   -7.0447  -13.7731 C   0  0  0  0  0  0  0  0  0  0  0  0
  -15.0324   -8.2554  -13.1947 O   0  0  0  0  0  0  0  0  0  0  0  0
 31 32  1  0  0  0
 32 30  1  0  0  0
 30 29  1  0  0  0
 29 28  1  0  0  0
 28  1  1  0  0  0
  1  2  1  0  0  0
  1 10  2  0  0  0
  2  3  2  0  0  0
  3  4  1  0  0  0
  3  8  1  0  0  0
  4  5  2  0  0  0
  5  6  1  0  0  0
  6  7  2  0  0  0
  7 11  1  0  0  0
  7  8  1  0  0  0
 11 13  1  0  0  0
 11 12  1  0  0  0
 13 14  2  0  0  0
 13 19  1  0  0  0
 14 15  1  0  0  0
 15 16  2  0  0  0
 15 17  1  0  0  0
 17 21  1  0  0  0
 17 18  2  0  0  0
 21 22  1  0  0  0
 21 25  1  0  0  0
 22 23  1  0  0  0
 23 24  1  0  0  0
 24 25  1  0  0  0
 18 19  1  0  0  0
 19 20  2  0  0  0
  8  9  2  0  0  0
  9 10  1  0  0  0
 10 26  1  0  0  0
 26 27  1  0  0  0
M  END
> <minimizedAffinity>
-6.57549

$$$$
