CHEMBL452287


 32 35  0  0  0  0  0  0  0  0999 V2000
  -25.3926   -0.8229  -12.6829 C   0  0  0  0  0  0  0  0  0  0  0  0
  -24.8742   -1.2341  -13.9168 C   0  0  0  0  0  0  0  0  0  0  0  0
  -23.7192   -0.6437  -14.4377 C   0  0  0  0  0  0  0  0  0  0  0  0
  -23.0626    0.3611  -13.7228 C   0  0  0  0  0  0  0  0  0  0  0  0
  -23.6164    0.8146  -12.5170 C   0  0  0  0  0  0  0  0  0  0  0  0
  -24.7920    0.2420  -12.0101 C   0  0  0  0  0  0  0  0  0  0  0  0
  -21.7894    0.9024  -14.2122 C   0  0  0  0  0  0  0  0  0  0  0  0
  -20.6934   -0.0245  -14.6378 C   0  0  0  0  0  0  0  0  0  0  0  0
  -19.5187    0.3016  -15.0926 N   0  0  0  0  0  0  0  0  0  0  0  0
  -19.2740    1.6421  -15.1786 C   0  0  0  0  0  0  0  0  0  0  0  0
  -18.1803    2.3656  -15.5851 C   0  0  0  0  0  0  0  0  0  0  0  0
  -16.5376    1.7393  -16.2210 Br  0  0  0  0  0  0  0  0  0  0  0  0
  -18.5174    3.7118  -15.4348 C   0  0  0  0  0  0  0  0  0  0  0  0
  -19.7519    3.8752  -14.9564 N   0  0  0  0  0  0  0  0  0  0  0  0
  -20.2337    2.5966  -14.8207 N   0  0  0  0  0  0  0  0  0  0  0  0
  -21.5198    2.2215  -14.3415 C   0  0  0  0  0  0  0  0  0  0  0  0
  -22.3991    3.2550  -14.0267 N   0  0  0  0  0  0  0  0  0  0  0  0
  -21.9073    4.1416  -13.8821 H   0  0  0  0  0  0  0  0  0  0  0  0
  -23.0753    3.0281  -13.3042 H   0  0  0  0  0  0  0  0  0  0  0  0
  -27.5743   -2.3708  -10.2281 N   0  0  0  0  0  0  0  0  0  0  0  0
  -26.4454   -1.7146  -10.6884 C   0  0  0  0  0  0  0  0  0  0  0  0
  -25.5316   -1.3026   -9.9814 O   0  0  0  0  0  0  0  0  0  0  0  0
  -26.4674   -1.5191  -12.0691 N   0  0  0  0  0  0  0  0  0  0  0  0
  -28.1435   -2.8412  -10.9180 H   0  0  0  0  0  0  0  0  0  0  0  0
  -27.3882   -1.3357  -12.4403 H   0  0  0  0  0  0  0  0  0  0  0  0
  -27.9561   -0.5616   -5.6141 C   0  0  0  0  0  0  0  0  0  0  0  0
  -28.0955   -1.6955   -6.5894 C   0  0  0  0  0  0  0  0  0  0  0  0
  -28.5473   -2.9399   -6.1407 C   0  0  0  0  0  0  0  0  0  0  0  0
  -28.6738   -3.9970   -7.0317 C   0  0  0  0  0  0  0  0  0  0  0  0
  -28.3517   -3.8204   -8.3771 C   0  0  0  0  0  0  0  0  0  0  0  0
  -27.9088   -2.5868   -8.8639 C   0  0  0  0  0  0  0  0  0  0  0  0
  -27.7781   -1.5244   -7.9530 C   0  0  0  0  0  0  0  0  0  0  0  0
 26 27  1  0  0  0
 27 28  1  0  0  0
 27 32  2  0  0  0
 28 29  2  0  0  0
 29 30  1  0  0  0
 30 31  2  0  0  0
 31 20  1  0  0  0
 31 32  1  0  0  0
 20 21  1  0  0  0
 20 24  1  0  0  0
 21 22  2  0  0  0
 21 23  1  0  0  0
 23  1  1  0  0  0
 23 25  1  0  0  0
  1  2  1  0  0  0
  1  6  2  0  0  0
  2  3  2  0  0  0
  3  4  1  0  0  0
  4  7  1  0  0  0
  4  5  2  0  0  0
  7  8  1  0  0  0
  7 16  2  0  0  0
  8  9  2  0  0  0
  9 10  1  0  0  0
 10 11  2  0  0  0
 10 15  1  0  0  0
 11 12  1  0  0  0
 11 13  1  0  0  0
 13 14  2  0  0  0
 14 15  1  0  0  0
 15 16  1  0  0  0
 16 17  1  0  0  0
 17 18  1  0  0  0
 17 19  1  0  0  0
  5  6  1  0  0  0
M  END
> <minimizedAffinity>
-10.94446

$$$$
