CHEMBL2023119


 33 36  0  0  0  0  0  0  0  0999 V2000
  -28.5733   -2.7679   -7.3954 C   0  0  0  0  0  0  0  0  0  0  0  0
  -28.5673   -4.0120   -8.0802 C   0  0  0  0  0  0  0  0  0  0  0  0
  -29.2041   -5.1892   -7.5977 C   0  0  0  0  0  0  0  0  0  0  0  0
  -29.9994   -5.1750   -6.4272 C   0  0  0  0  0  0  0  0  0  0  0  0
  -30.1107   -3.8967   -5.8281 C   0  0  0  0  0  0  0  0  0  0  0  0
  -29.4586   -2.6760   -6.2940 C   0  0  0  0  0  0  0  0  0  0  0  0
  -29.6690   -1.4192   -5.7158 O   0  0  0  0  0  0  0  0  0  0  0  0
  -28.8573   -1.0037   -4.5872 C   0  0  0  0  0  0  0  0  0  0  0  0
  -27.5504   -1.7044   -7.8309 C   0  0  0  0  0  0  0  0  0  0  0  0
  -26.2568   -1.8906   -9.9472 N   0  0  0  0  0  0  0  0  0  0  0  0
  -27.4315   -1.4810   -9.3373 C   0  0  0  0  0  0  0  0  0  0  0  0
  -28.3510   -0.9212   -9.9412 O   0  0  0  0  0  0  0  0  0  0  0  0
  -25.5505   -2.4037   -9.4276 H   0  0  0  0  0  0  0  0  0  0  0  0
  -25.2377   -1.2341  -13.2820 N   0  0  0  0  0  0  0  0  0  0  0  0
  -25.0012   -1.1850  -11.9485 C   0  0  0  0  0  0  0  0  0  0  0  0
  -26.1000   -1.7176  -11.3178 C   0  0  0  0  0  0  0  0  0  0  0  0
  -26.9696   -2.0321  -12.3823 C   0  0  0  0  0  0  0  0  0  0  0  0
  -26.4527   -1.7309  -13.5846 N   0  0  0  0  0  0  0  0  0  0  0  0
  -22.8970   -0.6019  -13.6857 C   0  0  0  0  0  0  0  0  0  0  0  0
  -24.2582   -0.8851  -14.2927 C   0  0  0  0  0  0  0  0  0  0  0  0
  -30.5344   -6.4154   -6.1013 O   0  0  0  0  0  0  0  0  0  0  0  0
  -31.0801   -7.6378   -6.5477 C   0  0  0  0  0  0  0  0  0  0  0  0
  -32.5010   -8.2894   -7.0979 C   0  0  0  0  0  0  0  0  0  0  0  0
  -32.7648   -9.6125   -7.4596 C   0  0  0  0  0  0  0  0  0  0  0  0
  -31.5641   -9.7132   -7.1201 N   0  0  0  0  0  0  0  0  0  0  0  0
  -30.3293   -9.8856   -6.7741 C   0  0  0  0  0  0  0  0  0  0  0  0
  -29.7477  -11.0920   -6.6852 C   0  0  0  0  0  0  0  0  0  0  0  0
  -28.4656  -11.0330   -6.2348 C   0  0  0  0  0  0  0  0  0  0  0  0
  -27.8855   -9.7872   -5.9012 C   0  0  0  0  0  0  0  0  0  0  0  0
  -28.6065   -8.5803   -6.0040 C   0  0  0  0  0  0  0  0  0  0  0  0
  -29.9585   -8.6276   -6.4259 C   0  0  0  0  0  0  0  0  0  0  0  0
  -26.5886   -9.7042   -5.4656 O   0  0  0  0  0  0  0  0  0  0  0  0
  -26.4708   -8.8912   -4.2988 C   0  0  0  0  0  0  0  0  0  0  0  0
 19 20  1  0  0  0
 20 14  1  0  0  0
 14 15  1  0  0  0
 14 18  1  0  0  0
 15 16  2  0  0  0
 16 10  1  0  0  0
 16 17  1  0  0  0
 10 11  1  0  0  0
 10 13  1  0  0  0
 11 12  2  0  0  0
 11  9  1  0  0  0
  9  1  1  0  0  0
  1  2  1  0  0  0
  1  6  2  0  0  0
  2  3  2  0  0  0
  3  4  1  0  0  0
  4 21  1  0  0  0
  4  5  2  0  0  0
 21 22  1  0  0  0
 22 23  1  0  0  0
 22 31  2  0  0  0
 23 24  2  0  0  0
 24 25  1  0  0  0
 25 26  2  0  0  0
 26 27  1  0  0  0
 26 31  1  0  0  0
 27 28  2  0  0  0
 28 29  1  0  0  0
 29 32  1  0  0  0
 29 30  2  0  0  0
 32 33  1  0  0  0
 30 31  1  0  0  0
  5  6  1  0  0  0
  6  7  1  0  0  0
  7  8  1  0  0  0
 17 18  2  0  0  0
M  END
> <minimizedAffinity>
-8.48230

$$$$
