CHEMBL513031


 31 34  0  0  0  0  0  0  0  0999 V2000
  -27.2892   -1.8237   -9.6791 C   0  0  0  0  0  0  0  0  0  0  0  0
  -27.9761   -1.3109  -10.7791 C   0  0  0  0  0  0  0  0  0  0  0  0
  -27.2816   -0.9547  -11.9365 C   0  0  0  0  0  0  0  0  0  0  0  0
  -25.8892   -1.0845  -12.0139 C   0  0  0  0  0  0  0  0  0  0  0  0
  -25.2089   -1.6486  -10.9321 C   0  0  0  0  0  0  0  0  0  0  0  0
  -25.9037   -2.0066   -9.7658 C   0  0  0  0  0  0  0  0  0  0  0  0
  -27.4676   -0.1260   -7.2440 N   0  0  0  0  0  0  0  0  0  0  0  0
  -28.0835   -1.3718   -7.3649 C   0  0  0  0  0  0  0  0  0  0  0  0
  -28.0300   -2.1613   -8.4601 C   0  0  0  0  0  0  0  0  0  0  0  0
  -28.7329   -3.4794   -8.3470 C   0  0  0  0  0  0  0  0  0  0  0  0
  -29.3993   -3.9218   -7.3242 N   0  0  0  0  0  0  0  0  0  0  0  0
  -29.4498   -3.0862   -6.2442 C   0  0  0  0  0  0  0  0  0  0  0  0
  -30.0337   -3.1961   -5.0062 C   0  0  0  0  0  0  0  0  0  0  0  0
  -31.0183   -4.6242   -4.3094 Br  0  0  0  0  0  0  0  0  0  0  0  0
  -29.7567   -2.0086   -4.3297 C   0  0  0  0  0  0  0  0  0  0  0  0
  -29.0382   -1.1563   -5.0712 N   0  0  0  0  0  0  0  0  0  0  0  0
  -28.8206   -1.8360   -6.2409 N   0  0  0  0  0  0  0  0  0  0  0  0
  -27.3317    0.3693   -8.1210 H   0  0  0  0  0  0  0  0  0  0  0  0
  -27.8868    0.4376   -6.4995 H   0  0  0  0  0  0  0  0  0  0  0  0
  -25.1494   -0.6691  -13.1484 N   0  0  0  0  0  0  0  0  0  0  0  0
  -23.9073   -0.0660  -13.0697 C   0  0  0  0  0  0  0  0  0  0  0  0
  -23.2787    0.0834  -12.0251 O   0  0  0  0  0  0  0  0  0  0  0  0
  -23.4469    0.3731  -14.3063 N   0  0  0  0  0  0  0  0  0  0  0  0
  -25.3682   -1.1006  -14.0348 H   0  0  0  0  0  0  0  0  0  0  0  0
  -24.1776    0.7574  -14.8896 H   0  0  0  0  0  0  0  0  0  0  0  0
  -22.1995    1.0456  -14.3486 C   0  0  0  0  0  0  0  0  0  0  0  0
  -22.1224    2.4223  -14.1046 C   0  0  0  0  0  0  0  0  0  0  0  0
  -20.9332    3.1131  -14.3336 C   0  0  0  0  0  0  0  0  0  0  0  0
  -19.8170    2.4280  -14.8062 C   0  0  0  0  0  0  0  0  0  0  0  0
  -19.8761    1.0464  -14.9995 C   0  0  0  0  0  0  0  0  0  0  0  0
  -21.0591    0.3467  -14.7434 C   0  0  0  0  0  0  0  0  0  0  0  0
  7  8  1  0  0  0
  7 18  1  0  0  0
  7 19  1  0  0  0
  8  9  2  0  0  0
  8 17  1  0  0  0
  9  1  1  0  0  0
  9 10  1  0  0  0
  1  2  1  0  0  0
  1  6  2  0  0  0
  2  3  2  0  0  0
  3  4  1  0  0  0
  4 20  1  0  0  0
  4  5  2  0  0  0
 20 21  1  0  0  0
 20 24  1  0  0  0
 21 22  2  0  0  0
 21 23  1  0  0  0
 23 26  1  0  0  0
 23 25  1  0  0  0
 26 27  1  0  0  0
 26 31  2  0  0  0
 27 28  2  0  0  0
 28 29  1  0  0  0
 29 30  2  0  0  0
 30 31  1  0  0  0
  5  6  1  0  0  0
 10 11  2  0  0  0
 11 12  1  0  0  0
 12 13  2  0  0  0
 12 17  1  0  0  0
 13 14  1  0  0  0
 13 15  1  0  0  0
 15 16  2  0  0  0
 16 17  1  0  0  0
M  END
> <minimizedAffinity>
-9.14971

$$$$
