CHEMBL3972376


 38 41  0  0  0  0  0  0  0  0999 V2000
  -28.6009   -3.4249   -6.1078 C   0  0  0  0  0  0  0  0  0  0  0  0
  -27.6711   -4.0371   -5.2627 C   0  0  0  0  0  0  0  0  0  0  0  0
  -27.9586   -5.0237   -4.3823 N   0  0  0  0  0  0  0  0  0  0  0  0
  -29.2330   -5.4674   -4.3509 C   0  0  0  0  0  0  0  0  0  0  0  0
  -30.2440   -4.8816   -5.1026 C   0  0  0  0  0  0  0  0  0  0  0  0
  -31.5091   -5.3183   -5.0279 F   0  0  0  0  0  0  0  0  0  0  0  0
  -29.9280   -3.8428   -5.9862 C   0  0  0  0  0  0  0  0  0  0  0  0
  -27.6841   -3.8639   -8.7592 O   0  0  0  0  0  0  0  0  0  0  0  0
  -27.7799   -2.7206   -8.3310 C   0  0  0  0  0  0  0  0  0  0  0  0
  -28.2578   -2.4286   -7.0614 N   0  0  0  0  0  0  0  0  0  0  0  0
  -27.4489   -1.5903   -9.0554 N   0  0  0  0  0  0  0  0  0  0  0  0
  -28.5856   -1.4887   -6.8899 H   0  0  0  0  0  0  0  0  0  0  0  0
  -27.4555   -0.7072   -8.5665 H   0  0  0  0  0  0  0  0  0  0  0  0
  -26.9858   -1.5768  -10.3964 C   0  0  0  0  0  0  0  0  0  0  0  0
  -27.8265   -1.5138  -11.5093 C   0  0  0  0  0  0  0  0  0  0  0  0
  -27.3078   -1.5160  -12.8057 C   0  0  0  0  0  0  0  0  0  0  0  0
  -25.9314   -1.5696  -13.0220 C   0  0  0  0  0  0  0  0  0  0  0  0
  -25.4157   -1.5694  -14.6663 Cl  0  0  0  0  0  0  0  0  0  0  0  0
  -25.0574   -1.6179  -11.9325 C   0  0  0  0  0  0  0  0  0  0  0  0
  -25.6051   -1.6236  -10.6215 C   0  0  0  0  0  0  0  0  0  0  0  0
  -23.5567   -1.6450  -12.0527 C   0  0  0  0  0  0  0  0  0  0  0  0
  -22.9576   -0.5204  -12.5187 F   0  0  0  0  0  0  0  0  0  0  0  0
  -22.9653   -1.9049  -10.8506 F   0  0  0  0  0  0  0  0  0  0  0  0
  -23.1394   -2.6473  -12.8803 F   0  0  0  0  0  0  0  0  0  0  0  0
  -29.5256   -6.5638   -3.5460 O   0  0  0  0  0  0  0  0  0  0  0  0
  -29.1445   -7.8058   -4.0323 C   0  0  0  0  0  0  0  0  0  0  0  0
  -28.3566   -8.6834   -3.2898 C   0  0  0  0  0  0  0  0  0  0  0  0
  -28.0438   -9.9002   -3.8499 C   0  0  0  0  0  0  0  0  0  0  0  0
  -28.4180  -10.2588   -5.0880 N   0  0  0  0  0  0  0  0  0  0  0  0
  -29.1444   -9.4014   -5.8237 C   0  0  0  0  0  0  0  0  0  0  0  0
  -29.5285   -8.1579   -5.3290 C   0  0  0  0  0  0  0  0  0  0  0  0
  -29.5196   -9.7788   -7.1262 N   0  0  0  0  0  0  0  0  0  0  0  0
  -28.7819   -9.4644   -8.2544 C   0  0  0  0  0  0  0  0  0  0  0  0
  -27.7317   -8.8409   -8.3127 O   0  0  0  0  0  0  0  0  0  0  0  0
  -30.3745  -10.3003   -7.2333 H   0  0  0  0  0  0  0  0  0  0  0  0
  -29.3805   -9.9574   -9.5400 C   0  0  0  0  0  0  0  0  0  0  0  0
  -29.0201  -11.3422  -10.0396 C   0  0  0  0  0  0  0  0  0  0  0  0
  -28.4827  -10.1338  -10.7482 C   0  0  0  0  0  0  0  0  0  0  0  0
  8  9  2  0  0  0
  9 10  1  0  0  0
  9 11  1  0  0  0
 10  1  1  0  0  0
 10 12  1  0  0  0
  1  2  1  0  0  0
  1  7  2  0  0  0
  2  3  2  0  0  0
  3  4  1  0  0  0
  4 25  1  0  0  0
  4  5  2  0  0  0
 25 26  1  0  0  0
 26 27  1  0  0  0
 26 31  2  0  0  0
 27 28  2  0  0  0
 28 29  1  0  0  0
 29 30  2  0  0  0
 30 32  1  0  0  0
 30 31  1  0  0  0
 32 33  1  0  0  0
 32 35  1  0  0  0
 33 34  2  0  0  0
 33 36  1  0  0  0
 36 37  1  0  0  0
 36 38  1  0  0  0
 37 38  1  0  0  0
  5  6  1  0  0  0
  5  7  1  0  0  0
 11 14  1  0  0  0
 11 13  1  0  0  0
 14 15  1  0  0  0
 14 20  2  0  0  0
 15 16  2  0  0  0
 16 17  1  0  0  0
 17 18  1  0  0  0
 17 19  2  0  0  0
 19 21  1  0  0  0
 19 20  1  0  0  0
 21 22  1  0  0  0
 21 23  1  0  0  0
 21 24  1  0  0  0
M  END
> <minimizedAffinity>
-9.64502

$$$$
