CHEMBL3098319


 26 28  0  0  0  0  0  0  0  0999 V2000
  -13.9087    3.8630  -16.5796 C   0  0  0  0  0  0  0  0  0  0  0  0
  -13.8621    2.7889  -15.6799 C   0  0  0  0  0  0  0  0  0  0  0  0
  -15.0092    2.2179  -15.1512 C   0  0  0  0  0  0  0  0  0  0  0  0
  -14.8890    1.2286  -14.2606 N   0  0  0  0  0  0  0  0  0  0  0  0
  -16.0268    0.7516  -13.7569 C   0  0  0  0  0  0  0  0  0  0  0  0
  -15.8878   -0.4885  -12.5949 Cl  0  0  0  0  0  0  0  0  0  0  0  0
  -17.2630    1.1587  -14.0394 N   0  0  0  0  0  0  0  0  0  0  0  0
  -17.3720    2.1526  -14.9380 C   0  0  0  0  0  0  0  0  0  0  0  0
  -16.2505    2.7247  -15.5572 C   0  0  0  0  0  0  0  0  0  0  0  0
  -16.3106    3.7805  -16.4971 C   0  0  0  0  0  0  0  0  0  0  0  0
  -15.1453    4.3547  -17.0087 C   0  0  0  0  0  0  0  0  0  0  0  0
  -12.1055    5.3408  -16.1690 C   0  0  0  0  0  0  0  0  0  0  0  0
  -12.6743    4.3122  -16.9748 O   0  0  0  0  0  0  0  0  0  0  0  0
  -18.6657    2.6551  -15.2443 N   0  0  0  0  0  0  0  0  0  0  0  0
  -18.6797    3.0138  -16.1927 H   0  0  0  0  0  0  0  0  0  0  0  0
  -19.8698    2.0225  -14.8713 C   0  0  0  0  0  0  0  0  0  0  0  0
  -20.9000    2.7359  -14.2581 C   0  0  0  0  0  0  0  0  0  0  0  0
  -22.0859    2.1059  -13.8622 C   0  0  0  0  0  0  0  0  0  0  0  0
  -22.3082    0.7402  -14.0649 C   0  0  0  0  0  0  0  0  0  0  0  0
  -21.2949    0.0580  -14.7599 C   0  0  0  0  0  0  0  0  0  0  0  0
  -20.1064    0.6852  -15.1751 C   0  0  0  0  0  0  0  0  0  0  0  0
  -23.4295    0.0960  -13.5668 N   0  0  0  0  0  0  0  0  0  0  0  0
  -24.2899   -0.7224  -14.4136 C   0  0  0  0  0  0  0  0  0  0  0  0
  -23.9962    0.4304  -12.2617 C   0  0  0  0  0  0  0  0  0  0  0  0
  -15.1720    5.3224  -17.9751 O   0  0  0  0  0  0  0  0  0  0  0  0
  -15.1855    4.8567  -19.3213 C   0  0  0  0  0  0  0  0  0  0  0  0
 12 13  1  0  0  0
 13  1  1  0  0  0
  1  2  1  0  0  0
  1 11  2  0  0  0
  2  3  2  0  0  0
  3  4  1  0  0  0
  3  9  1  0  0  0
  4  5  2  0  0  0
  5  6  1  0  0  0
  5  7  1  0  0  0
  7  8  2  0  0  0
  8 14  1  0  0  0
  8  9  1  0  0  0
 14 16  1  0  0  0
 14 15  1  0  0  0
 16 17  1  0  0  0
 16 21  2  0  0  0
 17 18  2  0  0  0
 18 19  1  0  0  0
 19 22  1  0  0  0
 19 20  2  0  0  0
 22 23  1  0  0  0
 22 24  1  0  0  0
 20 21  1  0  0  0
  9 10  2  0  0  0
 10 11  1  0  0  0
 11 25  1  0  0  0
 25 26  1  0  0  0
M  END
> <minimizedAffinity>
-7.32612

$$$$
