CHEMBL217493


 38 42  0  0  0  0  0  0  0  0999 V2000
  -14.6149    1.0446  -13.6251 C   0  0  0  0  0  0  0  0  0  0  0  0
  -13.5494    1.0613  -12.7920 N   0  0  0  0  0  0  0  0  0  0  0  0
  -12.6755    2.0510  -12.9411 C   0  0  0  0  0  0  0  0  0  0  0  0
  -12.7218    2.9887  -13.8846 N   0  0  0  0  0  0  0  0  0  0  0  0
  -13.7547    2.9458  -14.7238 C   0  0  0  0  0  0  0  0  0  0  0  0
  -13.7630    3.9055  -15.7095 C   0  0  0  0  0  0  0  0  0  0  0  0
  -14.7749    3.9789  -16.6596 C   0  0  0  0  0  0  0  0  0  0  0  0
  -15.8405    3.0881  -16.5869 C   0  0  0  0  0  0  0  0  0  0  0  0
  -15.8838    2.1218  -15.5779 C   0  0  0  0  0  0  0  0  0  0  0  0
  -14.7931    2.0029  -14.6538 C   0  0  0  0  0  0  0  0  0  0  0  0
  -15.5010   -0.0565  -13.5066 N   0  0  0  0  0  0  0  0  0  0  0  0
  -16.3338    0.2151  -12.9875 H   0  0  0  0  0  0  0  0  0  0  0  0
  -15.1544   -3.1923  -11.5521 C   0  0  0  0  0  0  0  0  0  0  0  0
  -14.4071   -3.9981  -12.4073 C   0  0  0  0  0  0  0  0  0  0  0  0
  -13.9368   -3.4806  -13.6138 C   0  0  0  0  0  0  0  0  0  0  0  0
  -14.2397   -2.1670  -13.9873 C   0  0  0  0  0  0  0  0  0  0  0  0
  -13.4427   -1.5652  -15.4032 Cl  0  0  0  0  0  0  0  0  0  0  0  0
  -15.0983   -1.3800  -13.1948 C   0  0  0  0  0  0  0  0  0  0  0  0
  -15.5059   -1.8991  -11.9540 C   0  0  0  0  0  0  0  0  0  0  0  0
  -14.6218   -3.9723   -9.3914 C   0  0  0  0  0  0  0  0  0  0  0  0
  -15.6209   -3.5783  -10.3248 O   0  0  0  0  0  0  0  0  0  0  0  0
  -14.8255    4.8784  -17.6893 O   0  0  0  0  0  0  0  0  0  0  0  0
  -14.5504    4.3595  -18.9941 C   0  0  0  0  0  0  0  0  0  0  0  0
  -13.0666    4.0347  -19.1058 C   0  0  0  0  0  0  0  0  0  0  0  0
  -12.8277    2.7338  -19.8780 C   0  0  0  0  0  0  0  0  0  0  0  0
  -12.1443    1.7003  -19.0805 N   0  0  0  0  0  0  0  0  0  0  0  0
  -11.7333    0.5649  -19.9424 C   0  0  0  0  0  0  0  0  0  0  0  0
  -12.9025   -0.3393  -20.3759 C   0  0  0  0  0  0  0  0  0  0  0  0
  -13.6158   -0.8480  -19.2425 O   0  0  0  0  0  0  0  0  0  0  0  0
  -14.0997    0.2236  -18.4234 C   0  0  0  0  0  0  0  0  0  0  0  0
  -12.9574    1.1500  -17.9742 C   0  0  0  0  0  0  0  0  0  0  0  0
  -16.9385    1.2500  -15.4238 O   0  0  0  0  0  0  0  0  0  0  0  0
  -18.2870    1.7542  -15.5352 C   0  0  0  0  0  0  0  0  0  0  0  0
  -18.5411    2.8684  -14.5060 C   0  0  0  0  0  0  0  0  0  0  0  0
  -20.0153    3.2402  -14.3788 C   0  0  0  0  0  0  0  0  0  0  0  0
  -20.8735    2.0162  -14.0854 C   0  0  0  0  0  0  0  0  0  0  0  0
  -20.6867    0.9604  -15.1684 C   0  0  0  0  0  0  0  0  0  0  0  0
  -19.2227    0.5560  -15.3042 C   0  0  0  0  0  0  0  0  0  0  0  0
 20 21  1  0  0  0
 21 13  1  0  0  0
 13 14  1  0  0  0
 13 19  2  0  0  0
 14 15  2  0  0  0
 15 16  1  0  0  0
 16 17  1  0  0  0
 16 18  2  0  0  0
 18 11  1  0  0  0
 18 19  1  0  0  0
 11  1  1  0  0  0
 11 12  1  0  0  0
  1  2  1  0  0  0
  1 10  2  0  0  0
  2  3  2  0  0  0
  3  4  1  0  0  0
  4  5  2  0  0  0
  5  6  1  0  0  0
  5 10  1  0  0  0
  6  7  2  0  0  0
  7 22  1  0  0  0
  7  8  1  0  0  0
 22 23  1  0  0  0
 23 24  1  0  0  0
 24 25  1  0  0  0
 25 26  1  0  0  0
 26 27  1  0  0  0
 26 31  1  0  0  0
 27 28  1  0  0  0
 28 29  1  0  0  0
 29 30  1  0  0  0
 30 31  1  0  0  0
  8  9  2  0  0  0
  9 32  1  0  0  0
  9 10  1  0  0  0
 32 33  1  0  0  0
 33 34  1  0  0  0
 33 38  1  0  0  0
 34 35  1  0  0  0
 35 36  1  0  0  0
 36 37  1  0  0  0
 37 38  1  0  0  0
M  END
> <minimizedAffinity>
-7.46243

$$$$
