CHEMBL423072


 21 24  0  0  0  0  0  0  0  0999 V2000
  -29.0448   -3.2405   -5.6838 C   0  0  0  0  0  0  0  0  0  0  0  0
  -30.0253   -3.6644   -6.6820 C   0  0  0  0  0  0  0  0  0  0  0  0
  -30.2260   -4.9700   -6.9083 C   0  0  0  0  0  0  0  0  0  0  0  0
  -29.5206   -5.9215   -6.1643 N   0  0  0  0  0  0  0  0  0  0  0  0
  -29.5868   -7.3142   -6.1609 C   0  0  0  0  0  0  0  0  0  0  0  0
  -28.6078   -7.6854   -5.2490 C   0  0  0  0  0  0  0  0  0  0  0  0
  -27.9859   -6.6076   -4.6801 N   0  0  0  0  0  0  0  0  0  0  0  0
  -28.5555   -5.5569   -5.2250 C   0  0  0  0  0  0  0  0  0  0  0  0
  -28.3349   -4.1700   -5.0010 C   0  0  0  0  0  0  0  0  0  0  0  0
  -28.3217    0.9046   -4.9773 C   0  0  0  0  0  0  0  0  0  0  0  0
  -27.2868   -0.0177   -4.8234 C   0  0  0  0  0  0  0  0  0  0  0  0
  -27.5230   -1.3760   -5.0386 C   0  0  0  0  0  0  0  0  0  0  0  0
  -28.8011   -1.8186   -5.4002 C   0  0  0  0  0  0  0  0  0  0  0  0
  -29.8393   -0.8892   -5.5411 C   0  0  0  0  0  0  0  0  0  0  0  0
  -29.5976    0.4697   -5.3331 C   0  0  0  0  0  0  0  0  0  0  0  0
  -30.4943   -8.1629   -6.9458 C   0  0  0  0  0  0  0  0  0  0  0  0
  -31.8746   -8.1127   -6.7250 C   0  0  0  0  0  0  0  0  0  0  0  0
  -32.7055   -8.9169   -7.4927 C   0  0  0  0  0  0  0  0  0  0  0  0
  -32.2655   -9.7669   -8.4428 N   0  0  0  0  0  0  0  0  0  0  0  0
  -30.9358   -9.7885   -8.6567 C   0  0  0  0  0  0  0  0  0  0  0  0
  -30.0314   -9.0025   -7.9617 C   0  0  0  0  0  0  0  0  0  0  0  0
 10 11  1  0  0  0
 10 15  2  0  0  0
 11 12  2  0  0  0
 12 13  1  0  0  0
 13  1  1  0  0  0
 13 14  2  0  0  0
  1  2  1  0  0  0
  1  9  2  0  0  0
  2  3  2  0  0  0
  3  4  1  0  0  0
  4  5  1  0  0  0
  4  8  1  0  0  0
  5 16  1  0  0  0
  5  6  2  0  0  0
 16 17  1  0  0  0
 16 21  2  0  0  0
 17 18  2  0  0  0
 18 19  1  0  0  0
 19 20  2  0  0  0
 20 21  1  0  0  0
  6  7  1  0  0  0
  7  8  2  0  0  0
  8  9  1  0  0  0
 14 15  1  0  0  0
M  END
> <minimizedAffinity>
-8.50327

$$$$
