CHEMBL1287853


 40 43  0  0  0  0  0  0  0  0999 V2000
  -19.7420    3.4751  -15.3807 C   0  0  0  0  0  0  0  0  0  0  0  0
  -18.7353    2.3940  -15.1691 C   0  0  0  0  0  0  0  0  0  0  0  0
  -17.4154    2.7335  -14.9900 C   0  0  0  0  0  0  0  0  0  0  0  0
  -16.4435    1.8413  -14.7934 N   0  0  0  0  0  0  0  0  0  0  0  0
  -16.7839    0.5475  -14.7426 C   0  0  0  0  0  0  0  0  0  0  0  0
  -18.0299    0.1158  -14.9659 N   0  0  0  0  0  0  0  0  0  0  0  0
  -19.0064    1.0281  -15.1662 C   0  0  0  0  0  0  0  0  0  0  0  0
  -15.8161   -0.4030  -14.4084 N   0  0  0  0  0  0  0  0  0  0  0  0
  -15.1606   -0.5241  -15.1645 H   0  0  0  0  0  0  0  0  0  0  0  0
  -15.9214   -1.4679  -13.4952 C   0  0  0  0  0  0  0  0  0  0  0  0
  -15.7509   -1.2917  -12.1158 C   0  0  0  0  0  0  0  0  0  0  0  0
  -15.7755   -2.3609  -11.2242 C   0  0  0  0  0  0  0  0  0  0  0  0
  -16.0061   -3.6481  -11.6910 C   0  0  0  0  0  0  0  0  0  0  0  0
  -16.1457   -3.8568  -13.0627 C   0  0  0  0  0  0  0  0  0  0  0  0
  -16.1040   -2.7768  -13.9580 C   0  0  0  0  0  0  0  0  0  0  0  0
  -16.1159   -4.7554  -10.8942 O   0  0  0  0  0  0  0  0  0  0  0  0
  -15.0259   -5.6813  -11.0052 C   0  0  0  0  0  0  0  0  0  0  0  0
  -13.8454   -5.1633  -10.1779 C   0  0  0  0  0  0  0  0  0  0  0  0
  -12.5392   -5.2930  -10.8570 N   0  0  0  0  0  0  0  0  0  0  0  0
  -11.7230   -4.0702  -10.8001 C   0  0  0  0  0  0  0  0  0  0  0  0
  -12.2468   -3.2155  -11.9340 C   0  0  0  0  0  0  0  0  0  0  0  0
  -12.4661   -4.2386  -13.0317 C   0  0  0  0  0  0  0  0  0  0  0  0
  -12.7351   -5.5516  -12.2983 C   0  0  0  0  0  0  0  0  0  0  0  0
  -20.3524    0.6026  -15.3102 N   0  0  0  0  0  0  0  0  0  0  0  0
  -20.3996   -0.2540  -15.8511 H   0  0  0  0  0  0  0  0  0  0  0  0
  -21.4280    0.7243  -14.3961 C   0  0  0  0  0  0  0  0  0  0  0  0
  -22.1205    1.9234  -14.1875 C   0  0  0  0  0  0  0  0  0  0  0  0
  -23.2054    2.0033  -13.3095 C   0  0  0  0  0  0  0  0  0  0  0  0
  -23.6631    0.8628  -12.6592 C   0  0  0  0  0  0  0  0  0  0  0  0
  -23.0369   -0.3561  -12.9117 C   0  0  0  0  0  0  0  0  0  0  0  0
  -21.9307   -0.4291  -13.7763 C   0  0  0  0  0  0  0  0  0  0  0  0
  -23.7720   -1.8522  -12.2962 S   0  0  0  0  0  0  0  0  0  0  0  0
  -23.0844   -2.9468  -12.9464 O   0  0  0  0  0  0  0  0  0  0  0  0
  -23.8298   -1.7661  -10.8611 O   0  0  0  0  0  0  0  0  0  0  0  0
  -25.3305   -1.8766  -12.9302 N   0  0  0  0  0  0  0  0  0  0  0  0
  -25.3865   -2.5499  -13.6943 H   0  0  0  0  0  0  0  0  0  0  0  0
  -26.5714   -1.6470  -12.1540 C   0  0  0  0  0  0  0  0  0  0  0  0
  -26.5315   -2.4085  -10.8304 C   0  0  0  0  0  0  0  0  0  0  0  0
  -26.6429   -0.1372  -11.8412 C   0  0  0  0  0  0  0  0  0  0  0  0
  -27.8156   -1.9998  -12.9748 C   0  0  0  0  0  0  0  0  0  0  0  0
  1  2  1  0  0  0
  2  3  1  0  0  0
  2  7  2  0  0  0
  3  4  2  0  0  0
  4  5  1  0  0  0
  5  8  1  0  0  0
  5  6  2  0  0  0
  8 10  1  0  0  0
  8  9  1  0  0  0
 10 11  1  0  0  0
 10 15  2  0  0  0
 11 12  2  0  0  0
 12 13  1  0  0  0
 13 16  1  0  0  0
 13 14  2  0  0  0
 16 17  1  0  0  0
 17 18  1  0  0  0
 18 19  1  0  0  0
 19 20  1  0  0  0
 19 23  1  0  0  0
 20 21  1  0  0  0
 21 22  1  0  0  0
 22 23  1  0  0  0
 14 15  1  0  0  0
  6  7  1  0  0  0
  7 24  1  0  0  0
 24 26  1  0  0  0
 24 25  1  0  0  0
 26 27  1  0  0  0
 26 31  2  0  0  0
 27 28  2  0  0  0
 28 29  1  0  0  0
 29 30  2  0  0  0
 30 32  1  0  0  0
 30 31  1  0  0  0
 32 33  2  0  0  0
 32 34  2  0  0  0
 32 35  1  0  0  0
 35 37  1  0  0  0
 35 36  1  0  0  0
 37 38  1  0  0  0
 37 39  1  0  0  0
 37 40  1  0  0  0
M  END
> <minimizedAffinity>
-8.44420

$$$$
