CHEMBL4205243


 40 42  0  0  0  0  0  0  0  0999 V2000
  -16.5516    0.2735  -13.7574 C   0  0  0  0  0  0  0  0  0  0  0  0
  -16.2607    0.6321  -12.6189 O   0  0  0  0  0  0  0  0  0  0  0  0
  -16.1953   -0.9433  -14.3200 N   0  0  0  0  0  0  0  0  0  0  0  0
  -16.0964   -0.9216  -15.3313 H   0  0  0  0  0  0  0  0  0  0  0  0
  -15.4229   -1.9065  -13.6423 C   0  0  0  0  0  0  0  0  0  0  0  0
  -14.0658   -1.6668  -13.5197 C   0  0  0  0  0  0  0  0  0  0  0  0
  -13.2575   -2.5698  -12.8304 C   0  0  0  0  0  0  0  0  0  0  0  0
  -13.7392   -3.8047  -12.3506 C   0  0  0  0  0  0  0  0  0  0  0  0
  -15.1330   -4.0466  -12.4500 C   0  0  0  0  0  0  0  0  0  0  0  0
  -15.9555   -3.0762  -13.0968 C   0  0  0  0  0  0  0  0  0  0  0  0
  -15.8766   -5.2550  -11.9010 C   0  0  0  0  0  0  0  0  0  0  0  0
  -15.2113   -6.0135  -10.9905 F   0  0  0  0  0  0  0  0  0  0  0  0
  -17.0391   -4.9009  -11.2796 F   0  0  0  0  0  0  0  0  0  0  0  0
  -16.2419   -6.1235  -12.8886 F   0  0  0  0  0  0  0  0  0  0  0  0
  -12.7148   -4.7490  -11.7277 C   0  0  0  0  0  0  0  0  0  0  0  0
  -12.1949   -4.4466  -10.2749 C   0  0  0  0  0  0  0  0  0  0  0  0
  -10.9403   -3.5535  -10.3124 C   0  0  0  0  0  0  0  0  0  0  0  0
  -13.2646   -3.7785   -9.3870 C   0  0  0  0  0  0  0  0  0  0  0  0
  -11.8312   -5.8084   -9.6172 C   0  0  0  0  0  0  0  0  0  0  0  0
  -12.1763   -6.9201  -10.4373 O   0  0  0  0  0  0  0  0  0  0  0  0
  -13.1433   -6.9374  -10.5324 H   0  0  0  0  0  0  0  0  0  0  0  0
  -17.3581    1.1627  -14.6927 C   0  0  0  0  0  0  0  0  0  0  0  0
  -15.0005    4.1068  -16.8572 C   0  0  0  0  0  0  0  0  0  0  0  0
  -14.4985    2.8170  -16.6241 C   0  0  0  0  0  0  0  0  0  0  0  0
  -15.2801    1.8561  -15.9614 C   0  0  0  0  0  0  0  0  0  0  0  0
  -16.5726    2.1588  -15.5173 C   0  0  0  0  0  0  0  0  0  0  0  0
  -17.0647    3.4453  -15.7707 C   0  0  0  0  0  0  0  0  0  0  0  0
  -18.2948    3.7759  -15.3540 F   0  0  0  0  0  0  0  0  0  0  0  0
  -16.2965    4.4091  -16.4294 C   0  0  0  0  0  0  0  0  0  0  0  0
  -13.1093    5.9166  -16.9614 C   0  0  0  0  0  0  0  0  0  0  0  0
  -12.4118    6.7902  -17.7036 C   0  0  0  0  0  0  0  0  0  0  0  0
  -12.7046    6.9480  -19.1498 C   0  0  0  0  0  0  0  0  0  0  0  0
  -12.0759    7.7361  -19.8439 O   0  0  0  0  0  0  0  0  0  0  0  0
  -13.7069    6.1570  -19.6425 N   0  0  0  0  0  0  0  0  0  0  0  0
  -14.4229    5.2637  -18.8829 C   0  0  0  0  0  0  0  0  0  0  0  0
  -14.1715    5.1091  -17.5688 C   0  0  0  0  0  0  0  0  0  0  0  0
  -13.9015    6.2580  -20.6312 H   0  0  0  0  0  0  0  0  0  0  0  0
  -12.9143    5.6801  -15.6099 O   0  0  0  0  0  0  0  0  0  0  0  0
  -11.6966    4.0050  -14.4018 C   0  0  0  0  0  0  0  0  0  0  0  0
  -11.6016    5.2918  -15.2000 C   0  0  0  0  0  0  0  0  0  0  0  0
 39 40  1  0  0  0
 40 38  1  0  0  0
 38 30  1  0  0  0
 30 31  2  0  0  0
 30 36  1  0  0  0
 31 32  1  0  0  0
 32 33  2  0  0  0
 32 34  1  0  0  0
 34 35  1  0  0  0
 34 37  1  0  0  0
 35 36  2  0  0  0
 36 23  1  0  0  0
 23 24  1  0  0  0
 23 29  2  0  0  0
 24 25  2  0  0  0
 25 26  1  0  0  0
 26 22  1  0  0  0
 26 27  2  0  0  0
 22  1  1  0  0  0
  1  2  2  0  0  0
  1  3  1  0  0  0
  3  5  1  0  0  0
  3  4  1  0  0  0
  5  6  1  0  0  0
  5 10  2  0  0  0
  6  7  2  0  0  0
  7  8  1  0  0  0
  8 15  1  0  0  0
  8  9  2  0  0  0
 15 16  1  0  0  0
 16 17  1  0  0  0
 16 18  1  0  0  0
 16 19  1  0  0  0
 19 20  1  0  0  0
 20 21  1  0  0  0
  9 11  1  0  0  0
  9 10  1  0  0  0
 11 12  1  0  0  0
 11 13  1  0  0  0
 11 14  1  0  0  0
 27 28  1  0  0  0
 27 29  1  0  0  0
M  END
> <minimizedAffinity>
-7.67280

$$$$
