CHEMBL45750


 27 30  0  0  0  0  0  0  0  0999 V2000
  -11.5238   -2.2423  -12.8744 C   0  0  0  0  0  0  0  0  0  0  0  0
  -10.7007   -2.3064  -13.9313 N   0  0  0  0  0  0  0  0  0  0  0  0
  -11.1079   -1.6926  -15.0590 C   0  0  0  0  0  0  0  0  0  0  0  0
  -12.3112   -1.0372  -15.1868 C   0  0  0  0  0  0  0  0  0  0  0  0
  -13.0528   -0.9620  -14.0296 C   0  0  0  0  0  0  0  0  0  0  0  0
  -12.6512   -1.5240  -12.8791 N   0  0  0  0  0  0  0  0  0  0  0  0
  -14.2958   -0.2741  -14.0150 N   0  0  0  0  0  0  0  0  0  0  0  0
  -14.4927    1.0289  -14.4232 C   0  0  0  0  0  0  0  0  0  0  0  0
  -15.8517    1.2045  -14.4650 C   0  0  0  0  0  0  0  0  0  0  0  0
  -16.4962    0.0895  -14.0138 N   0  0  0  0  0  0  0  0  0  0  0  0
  -15.5549   -0.7857  -13.6799 C   0  0  0  0  0  0  0  0  0  0  0  0
  -15.8358   -2.0589  -12.9833 C   0  0  0  0  0  0  0  0  0  0  0  0
  -15.7657   -2.1138  -11.5840 C   0  0  0  0  0  0  0  0  0  0  0  0
  -16.0334   -3.3032  -10.8967 C   0  0  0  0  0  0  0  0  0  0  0  0
  -16.3817   -4.4553  -11.5999 C   0  0  0  0  0  0  0  0  0  0  0  0
  -16.4237   -4.4296  -12.9884 C   0  0  0  0  0  0  0  0  0  0  0  0
  -16.1211   -3.2497  -13.6711 C   0  0  0  0  0  0  0  0  0  0  0  0
  -11.1487   -2.9475  -11.7305 N   0  0  0  0  0  0  0  0  0  0  0  0
  -10.1909   -3.2437  -11.8534 H   0  0  0  0  0  0  0  0  0  0  0  0
  -12.2351   -3.8055   -9.6446 C   0  0  0  0  0  0  0  0  0  0  0  0
  -12.9973   -4.8109   -9.0325 C   0  0  0  0  0  0  0  0  0  0  0  0
  -13.4971   -5.8766   -9.7809 C   0  0  0  0  0  0  0  0  0  0  0  0
  -13.2598   -5.9348  -11.1496 C   0  0  0  0  0  0  0  0  0  0  0  0
  -12.4905   -4.9452  -11.7650 C   0  0  0  0  0  0  0  0  0  0  0  0
  -11.9329   -3.8906  -11.0228 C   0  0  0  0  0  0  0  0  0  0  0  0
  -11.4128   -2.8673   -7.6307 C   0  0  0  0  0  0  0  0  0  0  0  0
  -11.8566   -2.6690   -8.9687 O   0  0  0  0  0  0  0  0  0  0  0  0
 26 27  1  0  0  0
 27 20  1  0  0  0
 20 21  1  0  0  0
 20 25  2  0  0  0
 21 22  2  0  0  0
 22 23  1  0  0  0
 23 24  2  0  0  0
 24 25  1  0  0  0
 25 18  1  0  0  0
 18  1  1  0  0  0
 18 19  1  0  0  0
  1  2  1  0  0  0
  1  6  2  0  0  0
  2  3  2  0  0  0
  3  4  1  0  0  0
  4  5  2  0  0  0
  5  7  1  0  0  0
  5  6  1  0  0  0
  7  8  1  0  0  0
  7 11  1  0  0  0
  8  9  2  0  0  0
  9 10  1  0  0  0
 10 11  2  0  0  0
 11 12  1  0  0  0
 12 13  1  0  0  0
 12 17  2  0  0  0
 13 14  2  0  0  0
 14 15  1  0  0  0
 15 16  2  0  0  0
 16 17  1  0  0  0
M  END
> <minimizedAffinity>
-6.92546

$$$$
