CHEMBL195903


 40 43  0  0  0  0  0  0  0  0999 V2000
  -29.3348   -2.4195   -5.3233 C   0  0  0  0  0  0  0  0  0  0  0  0
  -29.1218   -1.6970   -4.2558 N   0  0  0  0  0  0  0  0  0  0  0  0
  -28.2934   -0.6147   -4.3033 C   0  0  0  0  0  0  0  0  0  0  0  0
  -27.6513   -0.1894   -5.3362 N   0  0  0  0  0  0  0  0  0  0  0  0
  -27.8431   -0.9255   -6.4397 N   0  0  0  0  0  0  0  0  0  0  0  0
  -27.2312   -0.6701   -7.6296 C   0  0  0  0  0  0  0  0  0  0  0  0
  -27.6099   -1.6370   -8.5262 C   0  0  0  0  0  0  0  0  0  0  0  0
  -28.5014   -2.5519   -7.8427 C   0  0  0  0  0  0  0  0  0  0  0  0
  -28.6383   -2.0401   -6.5398 C   0  0  0  0  0  0  0  0  0  0  0  0
  -27.0954   -1.6556   -9.9364 C   0  0  0  0  0  0  0  0  0  0  0  0
  -27.8549   -1.4460  -10.9975 N   0  0  0  0  0  0  0  0  0  0  0  0
  -27.0458   -1.5205  -12.1119 N   0  0  0  0  0  0  0  0  0  0  0  0
  -25.8332   -1.7855  -11.6714 C   0  0  0  0  0  0  0  0  0  0  0  0
  -25.7883   -1.8863  -10.3041 O   0  0  0  0  0  0  0  0  0  0  0  0
  -24.5668   -1.9259  -12.4325 C   0  0  0  0  0  0  0  0  0  0  0  0
  -23.7846   -2.9194  -11.9053 F   0  0  0  0  0  0  0  0  0  0  0  0
  -24.8068   -2.3023  -13.7289 F   0  0  0  0  0  0  0  0  0  0  0  0
  -23.7065   -0.3238  -12.3551 S   0  0  0  0  0  0  0  0  0  0  0  0
  -23.4368    0.1206  -14.0505 C   0  0  0  0  0  0  0  0  0  0  0  0
  -24.6050    0.6786  -11.8064 O   0  0  0  0  0  0  0  0  0  0  0  0
  -22.3900   -0.4978  -11.7484 O   0  0  0  0  0  0  0  0  0  0  0  0
  -29.0553   -3.8147   -8.4763 C   0  0  0  0  0  0  0  0  0  0  0  0
  -28.2025   -5.0511   -8.2016 C   0  0  0  0  0  0  0  0  0  0  0  0
  -30.5445   -4.0477   -8.2340 C   0  0  0  0  0  0  0  0  0  0  0  0
  -30.2266   -3.4631   -5.2287 N   0  0  0  0  0  0  0  0  0  0  0  0
  -31.0536   -3.4446   -5.8005 H   0  0  0  0  0  0  0  0  0  0  0  0
  -28.7634   -6.8186   -4.4506 C   0  0  0  0  0  0  0  0  0  0  0  0
  -28.9442   -5.5553   -5.0353 C   0  0  0  0  0  0  0  0  0  0  0  0
  -29.9987   -4.7257   -4.6411 C   0  0  0  0  0  0  0  0  0  0  0  0
  -30.8365   -5.1787   -3.6083 C   0  0  0  0  0  0  0  0  0  0  0  0
  -31.8656   -4.4144   -3.2116 F   0  0  0  0  0  0  0  0  0  0  0  0
  -30.6414   -6.4094   -2.9863 C   0  0  0  0  0  0  0  0  0  0  0  0
  -29.6026   -7.2252   -3.4155 C   0  0  0  0  0  0  0  0  0  0  0  0
  -29.4404   -8.4209   -2.8297 F   0  0  0  0  0  0  0  0  0  0  0  0
  -26.6130   -7.9223   -4.2231 N   0  0  0  0  0  0  0  0  0  0  0  0
  -27.7179   -7.7012   -5.0141 C   0  0  0  0  0  0  0  0  0  0  0  0
  -27.8801   -8.1565   -6.1427 O   0  0  0  0  0  0  0  0  0  0  0  0
  -26.6620   -7.8210   -3.2139 H   0  0  0  0  0  0  0  0  0  0  0  0
  -24.9400   -9.3654   -3.5866 C   0  0  0  0  0  0  0  0  0  0  0  0
  -25.7405   -8.9358   -4.6858 O   0  0  0  0  0  0  0  0  0  0  0  0
 39 40  1  0  0  0
 40 35  1  0  0  0
 35 36  1  0  0  0
 35 38  1  0  0  0
 36 37  2  0  0  0
 36 27  1  0  0  0
 27 28  1  0  0  0
 27 33  2  0  0  0
 28 29  2  0  0  0
 29 25  1  0  0  0
 29 30  1  0  0  0
 25  1  1  0  0  0
 25 26  1  0  0  0
  1  2  2  0  0  0
  1  9  1  0  0  0
  2  3  1  0  0  0
  3  4  2  0  0  0
  4  5  1  0  0  0
  5  6  1  0  0  0
  5  9  1  0  0  0
  6  7  2  0  0  0
  7 10  1  0  0  0
  7  8  1  0  0  0
 10 11  2  0  0  0
 10 14  1  0  0  0
 11 12  1  0  0  0
 12 13  2  0  0  0
 13 15  1  0  0  0
 13 14  1  0  0  0
 15 16  1  0  0  0
 15 17  1  0  0  0
 15 18  1  0  0  0
 18 19  1  0  0  0
 18 20  2  0  0  0
 18 21  2  0  0  0
  8 22  1  0  0  0
  8  9  2  0  0  0
 22 23  1  0  0  0
 22 24  1  0  0  0
 30 31  1  0  0  0
 30 32  2  0  0  0
 32 33  1  0  0  0
 33 34  1  0  0  0
M  END
> <minimizedAffinity>
-8.86375

$$$$
