CHEMBL4103267


 33 36  0  0  0  0  0  0  0  0999 V2000
  -29.5858   -7.1266   -6.3477 C   0  0  0  0  0  0  0  0  0  0  0  0
  -28.7689   -6.8998   -7.4567 C   0  0  0  0  0  0  0  0  0  0  0  0
  -28.4578   -5.5979   -7.8835 C   0  0  0  0  0  0  0  0  0  0  0  0
  -29.0532   -4.5159   -7.2107 C   0  0  0  0  0  0  0  0  0  0  0  0
  -29.9367   -4.7340   -6.1405 C   0  0  0  0  0  0  0  0  0  0  0  0
  -30.3583   -3.4684   -5.6640 C   0  0  0  0  0  0  0  0  0  0  0  0
  -29.6691   -2.5179   -6.3688 C   0  0  0  0  0  0  0  0  0  0  0  0
  -28.8688   -3.1337   -7.3196 N   0  0  0  0  0  0  0  0  0  0  0  0
  -27.9360   -2.4211   -8.1002 C   0  0  0  0  0  0  0  0  0  0  0  0
  -27.2447   -1.5934   -7.5204 O   0  0  0  0  0  0  0  0  0  0  0  0
  -28.1089   -2.6523   -9.4498 N   0  0  0  0  0  0  0  0  0  0  0  0
  -30.2077   -6.0502   -5.7151 C   0  0  0  0  0  0  0  0  0  0  0  0
  -28.9405   -3.1246   -9.7726 H   0  0  0  0  0  0  0  0  0  0  0  0
  -27.3699   -1.9519  -10.3936 C   0  0  0  0  0  0  0  0  0  0  0  0
  -25.9590   -1.9944  -10.5530 C   0  0  0  0  0  0  0  0  0  0  0  0
  -25.6753   -1.1722  -11.6307 C   0  0  0  0  0  0  0  0  0  0  0  0
  -26.8894   -0.6803  -12.0217 N   0  0  0  0  0  0  0  0  0  0  0  0
  -27.9116   -1.1195  -11.2842 N   0  0  0  0  0  0  0  0  0  0  0  0
  -27.0945   -0.0389  -12.7808 H   0  0  0  0  0  0  0  0  0  0  0  0
  -24.4131   -0.7876  -12.3457 C   0  0  0  0  0  0  0  0  0  0  0  0
  -23.1999   -1.4937  -11.7437 C   0  0  0  0  0  0  0  0  0  0  0  0
  -24.5115   -1.0566  -13.8467 C   0  0  0  0  0  0  0  0  0  0  0  0
  -29.8703   -8.3685   -5.8175 O   0  0  0  0  0  0  0  0  0  0  0  0
  -26.8230  -10.1951   -5.0113 C   0  0  0  0  0  0  0  0  0  0  0  0
  -27.7805   -9.2041   -4.9134 C   0  0  0  0  0  0  0  0  0  0  0  0
  -28.8820   -9.3271   -5.7322 C   0  0  0  0  0  0  0  0  0  0  0  0
  -29.1045  -10.4153   -6.4920 N   0  0  0  0  0  0  0  0  0  0  0  0
  -28.1491  -11.3528   -6.4647 C   0  0  0  0  0  0  0  0  0  0  0  0
  -26.9949  -11.2885   -5.7844 N   0  0  0  0  0  0  0  0  0  0  0  0
  -25.5324  -10.0732   -4.2261 C   0  0  0  0  0  0  0  0  0  0  0  0
  -23.5147   -9.8522   -5.5430 C   0  0  0  0  0  0  0  0  0  0  0  0
  -24.5629   -9.1396   -4.8169 N   0  0  0  0  0  0  0  0  0  0  0  0
  -25.0588   -8.5362   -5.4716 H   0  0  0  0  0  0  0  0  0  0  0  0
 31 32  1  0  0  0
 32 30  1  0  0  0
 32 33  1  0  0  0
 30 24  1  0  0  0
 24 25  1  0  0  0
 24 29  2  0  0  0
 25 26  2  0  0  0
 26 23  1  0  0  0
 26 27  1  0  0  0
 23  1  1  0  0  0
  1  2  1  0  0  0
  1 12  2  0  0  0
  2  3  2  0  0  0
  3  4  1  0  0  0
  4  5  2  0  0  0
  4  8  1  0  0  0
  5  6  1  0  0  0
  5 12  1  0  0  0
  6  7  2  0  0  0
  7  8  1  0  0  0
  8  9  1  0  0  0
  9 10  2  0  0  0
  9 11  1  0  0  0
 11 14  1  0  0  0
 11 13  1  0  0  0
 14 15  1  0  0  0
 14 18  2  0  0  0
 15 16  2  0  0  0
 16 20  1  0  0  0
 16 17  1  0  0  0
 20 21  1  0  0  0
 20 22  1  0  0  0
 17 18  1  0  0  0
 17 19  1  0  0  0
 27 28  2  0  0  0
 28 29  1  0  0  0
M  END
> <minimizedAffinity>
-8.76439

$$$$
