CHEMBL3893575


 36 40  0  0  0  0  0  0  0  0999 V2000
  -28.9840   -5.5204   -7.2131 C   0  0  0  0  0  0  0  0  0  0  0  0
  -28.7929   -4.4327   -8.0705 C   0  0  0  0  0  0  0  0  0  0  0  0
  -28.4157   -3.1679   -7.5653 C   0  0  0  0  0  0  0  0  0  0  0  0
  -28.1413   -2.0370   -8.3479 C   0  0  0  0  0  0  0  0  0  0  0  0
  -27.7074   -0.8814   -7.8092 N   0  0  0  0  0  0  0  0  0  0  0  0
  -27.5640   -0.8466   -6.4832 C   0  0  0  0  0  0  0  0  0  0  0  0
  -27.8213   -1.8504   -5.6432 N   0  0  0  0  0  0  0  0  0  0  0  0
  -28.2403   -2.9955   -6.1915 C   0  0  0  0  0  0  0  0  0  0  0  0
  -28.5085   -4.0592   -5.3521 C   0  0  0  0  0  0  0  0  0  0  0  0
  -28.9331   -5.3100   -5.8296 C   0  0  0  0  0  0  0  0  0  0  0  0
  -28.1800   -7.3660   -8.4536 C   0  0  0  0  0  0  0  0  0  0  0  0
  -29.2319   -6.7864   -7.6757 O   0  0  0  0  0  0  0  0  0  0  0  0
  -28.3303   -2.1032   -9.7549 N   0  0  0  0  0  0  0  0  0  0  0  0
  -29.1927   -1.6204   -9.9933 H   0  0  0  0  0  0  0  0  0  0  0  0
  -27.2957   -1.8825  -10.6855 C   0  0  0  0  0  0  0  0  0  0  0  0
  -25.9901   -1.6376  -10.2397 C   0  0  0  0  0  0  0  0  0  0  0  0
  -24.9679   -1.3337  -11.1394 C   0  0  0  0  0  0  0  0  0  0  0  0
  -25.2431   -1.2771  -12.5051 C   0  0  0  0  0  0  0  0  0  0  0  0
  -23.9530   -0.8348  -13.5639 Cl  0  0  0  0  0  0  0  0  0  0  0  0
  -26.5339   -1.5613  -12.9661 C   0  0  0  0  0  0  0  0  0  0  0  0
  -26.9434   -1.5243  -14.6452 Cl  0  0  0  0  0  0  0  0  0  0  0  0
  -27.5537   -1.8735  -12.0588 C   0  0  0  0  0  0  0  0  0  0  0  0
  -29.3007   -6.3456   -4.9911 O   0  0  0  0  0  0  0  0  0  0  0  0
  -28.1799   -7.0457   -4.4231 C   0  0  0  0  0  0  0  0  0  0  0  0
  -28.1932   -8.5291   -4.5783 C   0  0  0  0  0  0  0  0  0  0  0  0
  -28.9808   -9.4792   -3.9653 C   0  0  0  0  0  0  0  0  0  0  0  0
  -28.4449  -11.0527   -4.4074 S   0  0  0  0  0  0  0  0  0  0  0  0
  -27.1875  -10.3610   -5.3623 C   0  0  0  0  0  0  0  0  0  0  0  0
  -27.2309   -9.0481   -5.4308 N   0  0  0  0  0  0  0  0  0  0  0  0
  -25.9939  -11.1586   -5.8520 C   0  0  0  0  0  0  0  0  0  0  0  0
  -25.2674  -11.8696   -4.6898 C   0  0  0  0  0  0  0  0  0  0  0  0
  -24.3021  -10.9348   -3.9634 C   0  0  0  0  0  0  0  0  0  0  0  0
  -23.3285  -10.2958   -4.9470 C   0  0  0  0  0  0  0  0  0  0  0  0
  -24.0400   -9.5465   -5.9822 N   0  0  0  0  0  0  0  0  0  0  0  0
  -24.9782  -10.3974   -6.7226 C   0  0  0  0  0  0  0  0  0  0  0  0
  -23.3604   -9.1521   -6.6333 H   0  0  0  0  0  0  0  0  0  0  0  0
 11 12  1  0  0  0
 12  1  1  0  0  0
  1  2  1  0  0  0
  1 10  2  0  0  0
  2  3  2  0  0  0
  3  4  1  0  0  0
  3  8  1  0  0  0
  4 13  1  0  0  0
  4  5  2  0  0  0
 13 15  1  0  0  0
 13 14  1  0  0  0
 15 16  1  0  0  0
 15 22  2  0  0  0
 16 17  2  0  0  0
 17 18  1  0  0  0
 18 19  1  0  0  0
 18 20  2  0  0  0
 20 21  1  0  0  0
 20 22  1  0  0  0
  5  6  1  0  0  0
  6  7  2  0  0  0
  7  8  1  0  0  0
  8  9  2  0  0  0
  9 10  1  0  0  0
 10 23  1  0  0  0
 23 24  1  0  0  0
 24 25  1  0  0  0
 25 26  2  0  0  0
 25 29  1  0  0  0
 26 27  1  0  0  0
 27 28  1  0  0  0
 28 30  1  0  0  0
 28 29  2  0  0  0
 30 31  1  0  0  0
 30 35  1  0  0  0
 31 32  1  0  0  0
 32 33  1  0  0  0
 33 34  1  0  0  0
 34 35  1  0  0  0
 34 36  1  0  0  0
M  END
> <minimizedAffinity>
-8.67436

$$$$
