CHEMBL2377479


 17 19  0  0  0  0  0  0  0  0999 V2000
  -23.1380    0.1683  -13.4674 C   0  0  0  0  0  0  0  0  0  0  0  0
  -23.2922   -0.0984  -12.1068 C   0  0  0  0  0  0  0  0  0  0  0  0
  -24.4617   -0.7598  -11.8255 C   0  0  0  0  0  0  0  0  0  0  0  0
  -24.8535   -1.1370  -10.5851 N   0  0  0  0  0  0  0  0  0  0  0  0
  -26.0124   -1.7814  -10.4250 N   0  0  0  0  0  0  0  0  0  0  0  0
  -26.7982   -2.0666  -11.4695 N   0  0  0  0  0  0  0  0  0  0  0  0
  -26.4462   -1.7063  -12.7327 C   0  0  0  0  0  0  0  0  0  0  0  0
  -27.5016   -2.0995  -14.0786 Cl  0  0  0  0  0  0  0  0  0  0  0  0
  -25.2430   -1.0310  -12.9164 C   0  0  0  0  0  0  0  0  0  0  0  0
  -24.5497   -0.4407  -14.4812 Se  0  0  0  0  0  0  0  0  0  0  0  0
  -18.3814    3.0822  -15.8667 Cl  0  0  0  0  0  0  0  0  0  0  0  0
  -19.7540    2.2350  -15.1774 C   0  0  0  0  0  0  0  0  0  0  0  0
  -19.7980    0.8402  -15.1967 C   0  0  0  0  0  0  0  0  0  0  0  0
  -20.8888    0.1614  -14.6445 C   0  0  0  0  0  0  0  0  0  0  0  0
  -21.9619    0.8726  -14.0637 C   0  0  0  0  0  0  0  0  0  0  0  0
  -21.8999    2.2823  -14.0577 C   0  0  0  0  0  0  0  0  0  0  0  0
  -20.8052    2.9543  -14.6078 C   0  0  0  0  0  0  0  0  0  0  0  0
 11 12  1  0  0  0
 12 13  1  0  0  0
 12 17  2  0  0  0
 13 14  2  0  0  0
 14 15  1  0  0  0
 15  1  1  0  0  0
 15 16  2  0  0  0
  1  2  2  0  0  0
  1 10  1  0  0  0
  2  3  1  0  0  0
  3  4  1  0  0  0
  3  9  2  0  0  0
  4  5  2  0  0  0
  5  6  1  0  0  0
  6  7  2  0  0  0
  7  8  1  0  0  0
  7  9  1  0  0  0
  9 10  1  0  0  0
 16 17  1  0  0  0
M  END
> <minimizedAffinity>
-8.09523

$$$$
