CHEMBL302449


 30 35  0  0  0  0  0  0  0  0999 V2000
  -15.6936   -2.8492  -10.6703 C   0  0  0  0  0  0  0  0  0  0  0  0
  -15.0391   -2.6756  -11.9505 N   0  0  0  0  0  0  0  0  0  0  0  0
  -15.2451   -1.5330  -12.7315 C   0  0  0  0  0  0  0  0  0  0  0  0
  -15.9458   -0.3477  -12.4379 C   0  0  0  0  0  0  0  0  0  0  0  0
  -15.9972    0.6590  -13.3986 C   0  0  0  0  0  0  0  0  0  0  0  0
  -15.3635    0.4981  -14.6201 C   0  0  0  0  0  0  0  0  0  0  0  0
  -14.6863   -0.6865  -14.9231 C   0  0  0  0  0  0  0  0  0  0  0  0
  -14.6323   -1.7334  -13.9834 C   0  0  0  0  0  0  0  0  0  0  0  0
  -14.1428   -3.0349  -13.8925 C   0  0  0  0  0  0  0  0  0  0  0  0
  -13.4541   -3.7392  -14.9179 C   0  0  0  0  0  0  0  0  0  0  0  0
  -13.1562   -5.1145  -14.7026 C   0  0  0  0  0  0  0  0  0  0  0  0
  -13.5047   -5.6993  -13.4669 C   0  0  0  0  0  0  0  0  0  0  0  0
  -13.3058   -7.0143  -13.0789 C   0  0  0  0  0  0  0  0  0  0  0  0
  -13.5053   -8.3275  -13.5215 C   0  0  0  0  0  0  0  0  0  0  0  0
  -12.9206   -9.3517  -12.7703 C   0  0  0  0  0  0  0  0  0  0  0  0
  -12.0135   -9.0393  -11.7568 C   0  0  0  0  0  0  0  0  0  0  0  0
  -11.9516   -7.7446  -11.2244 C   0  0  0  0  0  0  0  0  0  0  0  0
  -12.8466   -6.8236  -11.7741 C   0  0  0  0  0  0  0  0  0  0  0  0
  -13.5242   -5.6896  -11.3267 N   0  0  0  0  0  0  0  0  0  0  0  0
  -13.8149   -4.8972  -12.4256 C   0  0  0  0  0  0  0  0  0  0  0  0
  -14.3182   -3.6123  -12.6635 C   0  0  0  0  0  0  0  0  0  0  0  0
  -12.2890   -5.6442  -15.7653 C   0  0  0  0  0  0  0  0  0  0  0  0
  -12.2785   -4.5049  -16.6611 N   0  0  0  0  0  0  0  0  0  0  0  0
  -12.8963   -3.3532  -16.1904 C   0  0  0  0  0  0  0  0  0  0  0  0
  -12.8513   -2.3115  -16.8291 O   0  0  0  0  0  0  0  0  0  0  0  0
  -11.7414   -4.4521  -17.5141 H   0  0  0  0  0  0  0  0  0  0  0  0
  -14.0736   -5.4551  -10.0169 C   0  0  0  0  0  0  0  0  0  0  0  0
  -13.2568   -4.9673   -8.8236 C   0  0  0  0  0  0  0  0  0  0  0  0
  -12.4183   -3.8202   -9.2993 C   0  0  0  0  0  0  0  0  0  0  0  0
  -11.8237   -2.8852   -9.6607 N   0  0  0  0  0  0  0  0  0  0  0  0
  1  2  1  0  0  0
  2  3  1  0  0  0
  2 21  1  0  0  0
  3  4  1  0  0  0
  3  8  2  0  0  0
  4  5  2  0  0  0
  5  6  1  0  0  0
  6  7  2  0  0  0
  7  8  1  0  0  0
  8  9  1  0  0  0
  9 10  1  0  0  0
  9 21  2  0  0  0
 10 11  2  0  0  0
 10 24  1  0  0  0
 11 12  1  0  0  0
 11 22  1  0  0  0
 12 13  1  0  0  0
 12 20  2  0  0  0
 13 14  1  0  0  0
 13 18  2  0  0  0
 14 15  2  0  0  0
 15 16  1  0  0  0
 16 17  2  0  0  0
 17 18  1  0  0  0
 18 19  1  0  0  0
 19 27  1  0  0  0
 19 20  1  0  0  0
 27 28  1  0  0  0
 28 29  1  0  0  0
 29 30  3  0  0  0
 20 21  1  0  0  0
 22 23  1  0  0  0
 23 24  1  0  0  0
 23 26  1  0  0  0
 24 25  2  0  0  0
M  END
> <minimizedAffinity>
-7.09319

$$$$
