CHEMBL2071274


 36 40  0  0  0  0  0  0  0  0999 V2000
  -28.5092   -9.9933   -5.8782 C   0  0  0  0  0  0  0  0  0  0  0  0
  -29.4546   -9.0450   -5.9296 N   0  0  0  0  0  0  0  0  0  0  0  0
  -29.3137   -7.9269   -5.2056 C   0  0  0  0  0  0  0  0  0  0  0  0
  -28.2554   -7.6911   -4.4261 N   0  0  0  0  0  0  0  0  0  0  0  0
  -27.3173   -8.6565   -4.3702 C   0  0  0  0  0  0  0  0  0  0  0  0
  -27.4011   -9.8430   -5.0621 C   0  0  0  0  0  0  0  0  0  0  0  0
  -26.1691  -11.0290   -4.9101 Cl  0  0  0  0  0  0  0  0  0  0  0  0
  -28.7026  -11.1210   -6.6527 N   0  0  0  0  0  0  0  0  0  0  0  0
  -29.3100  -11.8169   -6.2276 H   0  0  0  0  0  0  0  0  0  0  0  0
  -29.7717  -11.2516   -9.0246 C   0  0  0  0  0  0  0  0  0  0  0  0
  -29.4079  -10.2121  -10.1286 C   0  0  0  0  0  0  0  0  0  0  0  0
  -28.2417  -10.7720  -10.9209 C   0  0  0  0  0  0  0  0  0  0  0  0
  -27.1661  -10.7511  -10.1146 C   0  0  0  0  0  0  0  0  0  0  0  0
  -27.6136  -10.1636   -8.7833 C   0  0  0  0  0  0  0  0  0  0  0  0
  -28.6091   -9.1553   -9.3717 C   0  0  0  0  0  0  0  0  0  0  0  0
  -28.5212  -11.2313   -8.1019 C   0  0  0  0  0  0  0  0  0  0  0  0
  -31.9462  -10.0842   -8.8435 N   0  0  0  0  0  0  0  0  0  0  0  0
  -31.1400  -11.0804   -8.4006 C   0  0  0  0  0  0  0  0  0  0  0  0
  -31.5442  -11.8280   -7.5116 O   0  0  0  0  0  0  0  0  0  0  0  0
  -32.7779   -9.9416   -8.2824 H   0  0  0  0  0  0  0  0  0  0  0  0
  -31.5096   -9.2374   -9.1971 H   0  0  0  0  0  0  0  0  0  0  0  0
  -30.4140   -7.0659   -5.2464 N   0  0  0  0  0  0  0  0  0  0  0  0
  -31.1955   -7.5777   -5.6387 H   0  0  0  0  0  0  0  0  0  0  0  0
  -30.6412   -5.9999   -4.4625 C   0  0  0  0  0  0  0  0  0  0  0  0
  -31.7838   -5.6810   -3.7014 C   0  0  0  0  0  0  0  0  0  0  0  0
  -31.6863   -4.4753   -3.1434 N   0  0  0  0  0  0  0  0  0  0  0  0
  -30.4807   -4.0306   -3.5500 N   0  0  0  0  0  0  0  0  0  0  0  0
  -29.7850   -4.9419   -4.2987 C   0  0  0  0  0  0  0  0  0  0  0  0
  -30.0547   -2.6789   -3.2230 C   0  0  0  0  0  0  0  0  0  0  0  0
  -29.6585   -1.8894   -4.4716 C   0  0  0  0  0  0  0  0  0  0  0  0
  -28.2495   -1.4569   -4.5326 N   0  0  0  0  0  0  0  0  0  0  0  0
  -28.0701   -0.0459   -4.9325 C   0  0  0  0  0  0  0  0  0  0  0  0
  -28.4334    0.2285   -6.4001 C   0  0  0  0  0  0  0  0  0  0  0  0
  -27.6864   -0.6109   -7.2889 O   0  0  0  0  0  0  0  0  0  0  0  0
  -27.8765   -1.9970   -6.9759 C   0  0  0  0  0  0  0  0  0  0  0  0
  -27.5115   -2.2970   -5.5084 C   0  0  0  0  0  0  0  0  0  0  0  0
 17 18  1  0  0  0
 17 20  1  0  0  0
 17 21  1  0  0  0
 18 19  2  0  0  0
 18 10  1  0  0  0
 10 11  1  0  0  0
 10 16  1  0  0  0
 11 12  1  0  0  0
 11 15  1  0  0  0
 12 13  2  0  0  0
 13 14  1  0  0  0
 14 15  1  0  0  0
 14 16  1  0  0  0
 16  8  1  0  0  0
  8  1  1  0  0  0
  8  9  1  0  0  0
  1  2  1  0  0  0
  1  6  2  0  0  0
  2  3  2  0  0  0
  3 22  1  0  0  0
  3  4  1  0  0  0
 22 24  1  0  0  0
 22 23  1  0  0  0
 24 25  1  0  0  0
 24 28  2  0  0  0
 25 26  2  0  0  0
 26 27  1  0  0  0
 27 29  1  0  0  0
 27 28  1  0  0  0
 29 30  1  0  0  0
 30 31  1  0  0  0
 31 32  1  0  0  0
 31 36  1  0  0  0
 32 33  1  0  0  0
 33 34  1  0  0  0
 34 35  1  0  0  0
 35 36  1  0  0  0
  4  5  2  0  0  0
  5  6  1  0  0  0
  6  7  1  0  0  0
M  END
> <minimizedAffinity>
-8.23086

$$$$
