CHEMBL1242753


 27 29  0  0  0  0  0  0  0  0999 V2000
  -15.7598   -0.6175  -13.8366 C   0  0  0  0  0  0  0  0  0  0  0  0
  -16.8927   -0.0777  -14.3232 N   0  0  0  0  0  0  0  0  0  0  0  0
  -16.4780    1.0051  -15.0178 N   0  0  0  0  0  0  0  0  0  0  0  0
  -15.1230    1.1774  -14.9934 C   0  0  0  0  0  0  0  0  0  0  0  0
  -14.4303    2.1685  -15.5831 N   0  0  0  0  0  0  0  0  0  0  0  0
  -13.1135    2.0400  -15.3622 C   0  0  0  0  0  0  0  0  0  0  0  0
  -12.4783    1.0691  -14.6816 N   0  0  0  0  0  0  0  0  0  0  0  0
  -13.2121    0.0851  -14.1193 C   0  0  0  0  0  0  0  0  0  0  0  0
  -12.4902   -0.9051  -13.4681 N   0  0  0  0  0  0  0  0  0  0  0  0
  -14.6089    0.1293  -14.2473 C   0  0  0  0  0  0  0  0  0  0  0  0
  -11.5034   -0.8259  -13.6828 H   0  0  0  0  0  0  0  0  0  0  0  0
  -12.8754   -1.8385  -13.5510 H   0  0  0  0  0  0  0  0  0  0  0  0
  -16.0607   -4.2844  -12.9546 C   0  0  0  0  0  0  0  0  0  0  0  0
  -16.0678   -3.0744  -13.6678 C   0  0  0  0  0  0  0  0  0  0  0  0
  -15.8277   -1.8438  -13.0368 C   0  0  0  0  0  0  0  0  0  0  0  0
  -15.6417   -1.8291  -11.6582 C   0  0  0  0  0  0  0  0  0  0  0  0
  -15.5536   -3.0283  -10.9518 C   0  0  0  0  0  0  0  0  0  0  0  0
  -15.7405   -4.2625  -11.5868 C   0  0  0  0  0  0  0  0  0  0  0  0
  -15.5760   -5.3096  -10.7216 O   0  0  0  0  0  0  0  0  0  0  0  0
  -14.2631   -5.7525  -10.4212 C   0  0  0  0  0  0  0  0  0  0  0  0
  -16.3425   -5.4879  -13.5487 O   0  0  0  0  0  0  0  0  0  0  0  0
  -15.1190   -7.5373  -13.5788 C   0  0  0  0  0  0  0  0  0  0  0  0
  -15.2749   -6.1670  -14.2121 C   0  0  0  0  0  0  0  0  0  0  0  0
  -17.4309    1.8924  -15.6617 C   0  0  0  0  0  0  0  0  0  0  0  0
  -18.8047    1.9496  -14.9955 C   0  0  0  0  0  0  0  0  0  0  0  0
  -19.5843    0.7937  -15.2964 O   0  0  0  0  0  0  0  0  0  0  0  0
  -19.7037    0.8091  -16.2712 H   0  0  0  0  0  0  0  0  0  0  0  0
 22 23  1  0  0  0
 23 21  1  0  0  0
 21 13  1  0  0  0
 13 14  1  0  0  0
 13 18  2  0  0  0
 14 15  2  0  0  0
 15  1  1  0  0  0
 15 16  1  0  0  0
  1  2  2  0  0  0
  1 10  1  0  0  0
  2  3  1  0  0  0
  3 24  1  0  0  0
  3  4  1  0  0  0
 24 25  1  0  0  0
 25 26  1  0  0  0
 26 27  1  0  0  0
  4  5  1  0  0  0
  4 10  2  0  0  0
  5  6  2  0  0  0
  6  7  1  0  0  0
  7  8  2  0  0  0
  8  9  1  0  0  0
  8 10  1  0  0  0
  9 11  1  0  0  0
  9 12  1  0  0  0
 16 17  2  0  0  0
 17 18  1  0  0  0
 18 19  1  0  0  0
 19 20  1  0  0  0
M  END
> <minimizedAffinity>
-6.27249

$$$$
