CHEMBL1650551


 33 37  0  0  0  0  0  0  0  0999 V2000
  -30.1667   -7.3449   -3.8201 N   0  0  0  0  0  0  0  0  0  0  0  0
  -30.7871   -7.9086   -3.2214 H   0  0  0  0  0  0  0  0  0  0  0  0
  -29.1818   -8.0251   -4.6029 C   0  0  0  0  0  0  0  0  0  0  0  0
  -28.0712   -8.5712   -4.0189 N   0  0  0  0  0  0  0  0  0  0  0  0
  -27.1426   -9.2729   -4.7333 C   0  0  0  0  0  0  0  0  0  0  0  0
  -25.9350   -9.8414   -4.0638 C   0  0  0  0  0  0  0  0  0  0  0  0
  -27.3248   -9.4553   -6.1085 C   0  0  0  0  0  0  0  0  0  0  0  0
  -28.4271   -8.9123   -6.6859 N   0  0  0  0  0  0  0  0  0  0  0  0
  -28.8432   -8.8952   -7.9696 C   0  0  0  0  0  0  0  0  0  0  0  0
  -30.0051   -8.1442   -8.0082 C   0  0  0  0  0  0  0  0  0  0  0  0
  -30.3298   -7.7274   -6.7614 N   0  0  0  0  0  0  0  0  0  0  0  0
  -29.3341   -8.2091   -5.9860 C   0  0  0  0  0  0  0  0  0  0  0  0
  -28.1805   -9.5312   -9.1316 C   0  0  0  0  0  0  0  0  0  0  0  0
  -27.0187   -9.1571   -9.7905 C   0  0  0  0  0  0  0  0  0  0  0  0
  -26.7874  -10.0146  -10.7996 N   0  0  0  0  0  0  0  0  0  0  0  0
  -27.7575  -10.9152  -10.7995 N   0  0  0  0  0  0  0  0  0  0  0  0
  -28.6123  -10.6628   -9.7961 C   0  0  0  0  0  0  0  0  0  0  0  0
  -27.8306  -11.6971  -11.4886 H   0  0  0  0  0  0  0  0  0  0  0  0
  -29.5980   -3.6788   -3.7227 C   0  0  0  0  0  0  0  0  0  0  0  0
  -29.1975   -5.0313   -3.8642 C   0  0  0  0  0  0  0  0  0  0  0  0
  -30.2495   -5.9233   -3.7080 C   0  0  0  0  0  0  0  0  0  0  0  0
  -31.5932   -4.9951   -3.3709 S   0  0  0  0  0  0  0  0  0  0  0  0
  -30.9115   -3.4789   -3.4310 N   0  0  0  0  0  0  0  0  0  0  0  0
  -28.6000   -2.0023   -2.8901 H   0  0  0  0  0  0  0  0  0  0  0  0
  -28.6384   -2.5226   -3.8717 C   0  0  0  0  0  0  0  0  0  0  0  0
  -27.6178   -2.8966   -4.1091 H   0  0  0  0  0  0  0  0  0  0  0  0
  -29.0853   -1.5578   -4.8948 N   0  0  0  0  0  0  0  0  0  0  0  0
  -28.7307   -1.8842   -6.2934 C   0  0  0  0  0  0  0  0  0  0  0  0
  -28.1224   -0.6115   -6.8995 C   0  0  0  0  0  0  0  0  0  0  0  0
  -28.6916    0.4735   -6.0124 C   0  0  0  0  0  0  0  0  0  0  0  0
  -27.9852    1.6594   -6.0920 F   0  0  0  0  0  0  0  0  0  0  0  0
  -30.0282    0.6923   -6.3085 F   0  0  0  0  0  0  0  0  0  0  0  0
  -28.5644   -0.2045   -4.6613 C   0  0  0  0  0  0  0  0  0  0  0  0
 24 25  1  0  0  0
 25 26  1  0  0  0
 25 19  1  0  0  0
 25 27  1  0  0  0
 19 20  1  0  0  0
 19 23  2  0  0  0
 20 21  2  0  0  0
 21  1  1  0  0  0
 21 22  1  0  0  0
  1  3  1  0  0  0
  1  2  1  0  0  0
  3  4  2  0  0  0
  3 12  1  0  0  0
  4  5  1  0  0  0
  5  6  1  0  0  0
  5  7  2  0  0  0
  7  8  1  0  0  0
  8  9  1  0  0  0
  8 12  1  0  0  0
  9 13  1  0  0  0
  9 10  2  0  0  0
 13 14  1  0  0  0
 13 17  2  0  0  0
 14 15  2  0  0  0
 15 16  1  0  0  0
 16 17  1  0  0  0
 16 18  1  0  0  0
 10 11  1  0  0  0
 11 12  2  0  0  0
 22 23  1  0  0  0
 27 28  1  0  0  0
 27 33  1  0  0  0
 28 29  1  0  0  0
 29 30  1  0  0  0
 30 31  1  0  0  0
 30 32  1  0  0  0
 30 33  1  0  0  0
M  ISO 1  24   2
M  ISO 1  26   2
M  END
> <minimizedAffinity>
-8.28196

$$$$
