CHEMBL3889711


 39 43  0  0  0  0  0  0  0  0999 V2000
  -12.8699   -3.2045  -13.6575 N   0  0  0  0  0  0  0  0  0  0  0  0
  -12.6590   -1.8586  -14.1731 C   0  0  0  0  0  0  0  0  0  0  0  0
  -11.3438   -1.4091  -14.0991 C   0  0  0  0  0  0  0  0  0  0  0  0
  -11.1169   -0.1204  -13.6800 C   0  0  0  0  0  0  0  0  0  0  0  0
  -12.1062    0.8046  -13.7067 C   0  0  0  0  0  0  0  0  0  0  0  0
  -11.8852    1.9124  -12.9867 N   0  0  0  0  0  0  0  0  0  0  0  0
  -12.5530    2.9922  -13.3602 C   0  0  0  0  0  0  0  0  0  0  0  0
  -13.2335    3.0295  -14.5515 C   0  0  0  0  0  0  0  0  0  0  0  0
  -13.7011    1.8373  -15.0949 N   0  0  0  0  0  0  0  0  0  0  0  0
  -13.2085    0.6083  -14.5443 C   0  0  0  0  0  0  0  0  0  0  0  0
  -13.5531   -0.8424  -14.6252 C   0  0  0  0  0  0  0  0  0  0  0  0
  -12.9425    4.2643  -15.3313 C   0  0  0  0  0  0  0  0  0  0  0  0
  -13.3810    4.8483  -16.5403 C   0  0  0  0  0  0  0  0  0  0  0  0
  -12.7687    6.0129  -16.8289 N   0  0  0  0  0  0  0  0  0  0  0  0
  -11.8866    6.1711  -15.8283 N   0  0  0  0  0  0  0  0  0  0  0  0
  -10.8626    7.1946  -15.8622 C   0  0  0  0  0  0  0  0  0  0  0  0
  -12.0170    5.2076  -14.8733 C   0  0  0  0  0  0  0  0  0  0  0  0
  -13.2050   -3.6269   -9.9031 C   0  0  0  0  0  0  0  0  0  0  0  0
  -14.4849   -4.1773   -9.8083 C   0  0  0  0  0  0  0  0  0  0  0  0
  -15.1446   -4.5640  -10.9654 C   0  0  0  0  0  0  0  0  0  0  0  0
  -14.5088   -4.4142  -12.2148 C   0  0  0  0  0  0  0  0  0  0  0  0
  -13.2363   -3.8108  -12.3850 C   0  0  0  0  0  0  0  0  0  0  0  0
  -12.5812   -3.4595  -11.1808 C   0  0  0  0  0  0  0  0  0  0  0  0
  -11.9917   -4.1136   -7.8799 C   0  0  0  0  0  0  0  0  0  0  0  0
  -12.5130   -3.1501   -8.8083 O   0  0  0  0  0  0  0  0  0  0  0  0
  -16.4460   -4.9955  -11.0260 O   0  0  0  0  0  0  0  0  0  0  0  0
  -16.9316   -5.5011  -12.2656 C   0  0  0  0  0  0  0  0  0  0  0  0
  -11.9313   -4.1994  -14.4299 C   0  0  0  0  0  0  0  0  0  0  0  0
  -12.6089   -5.1173  -15.4590 C   0  0  0  0  0  0  0  0  0  0  0  0
  -13.1900   -4.6824  -16.5725 N   0  0  0  0  0  0  0  0  0  0  0  0
  -13.8234   -5.7529  -17.1371 C   0  0  0  0  0  0  0  0  0  0  0  0
  -13.6223   -6.8844  -16.3881 C   0  0  0  0  0  0  0  0  0  0  0  0
  -12.7891   -6.4891  -15.3800 N   0  0  0  0  0  0  0  0  0  0  0  0
  -12.1203   -7.5314  -14.2259 S   0  0  0  0  0  0  0  0  0  0  0  0
  -12.6251   -8.8351  -14.6064 O   0  0  0  0  0  0  0  0  0  0  0  0
  -10.7016   -7.2474  -14.2849 O   0  0  0  0  0  0  0  0  0  0  0  0
  -12.6341   -7.2375  -12.5875 N   0  0  0  0  0  0  0  0  0  0  0  0
  -13.6623   -8.1365  -12.0013 C   0  0  0  0  0  0  0  0  0  0  0  0
  -11.4745   -7.1705  -11.6425 C   0  0  0  0  0  0  0  0  0  0  0  0
 24 25  1  0  0  0
 25 18  1  0  0  0
 18 19  1  0  0  0
 18 23  2  0  0  0
 19 20  2  0  0  0
 20 26  1  0  0  0
 20 21  1  0  0  0
 26 27  1  0  0  0
 21 22  2  0  0  0
 22  1  1  0  0  0
 22 23  1  0  0  0
  1 28  1  0  0  0
  1  2  1  0  0  0
 28 29  1  0  0  0
 29 30  2  0  0  0
 29 33  1  0  0  0
 30 31  1  0  0  0
 31 32  2  0  0  0
 32 33  1  0  0  0
 33 34  1  0  0  0
 34 35  2  0  0  0
 34 36  2  0  0  0
 34 37  1  0  0  0
 37 38  1  0  0  0
 37 39  1  0  0  0
  2  3  1  0  0  0
  2 11  2  0  0  0
  3  4  2  0  0  0
  4  5  1  0  0  0
  5  6  1  0  0  0
  5 10  2  0  0  0
  6  7  2  0  0  0
  7  8  1  0  0  0
  8 12  1  0  0  0
  8  9  2  0  0  0
 12 13  1  0  0  0
 12 17  2  0  0  0
 13 14  2  0  0  0
 14 15  1  0  0  0
 15 16  1  0  0  0
 15 17  1  0  0  0
  9 10  1  0  0  0
 10 11  1  0  0  0
M  END
> <minimizedAffinity>
-6.59670

$$$$
