CHEMBL3690563


 39 42  0  0  0  0  0  0  0  0999 V2000
  -14.2383   -2.5400  -12.6349 C   0  0  0  0  0  0  0  0  0  0  0  0
  -15.4505   -1.7873  -12.3223 C   0  0  0  0  0  0  0  0  0  0  0  0
  -15.7835   -0.7233  -13.0719 C   0  0  0  0  0  0  0  0  0  0  0  0
  -14.9799   -0.3583  -14.1562 N   0  0  0  0  0  0  0  0  0  0  0  0
  -15.1159    0.6458  -15.1103 C   0  0  0  0  0  0  0  0  0  0  0  0
  -13.9699    0.5166  -15.8875 C   0  0  0  0  0  0  0  0  0  0  0  0
  -13.1616   -0.4993  -15.4718 N   0  0  0  0  0  0  0  0  0  0  0  0
  -13.7901   -1.0287  -14.4503 C   0  0  0  0  0  0  0  0  0  0  0  0
  -13.4335   -2.1454  -13.6463 C   0  0  0  0  0  0  0  0  0  0  0  0
  -13.5880   -6.0542  -11.6263 C   0  0  0  0  0  0  0  0  0  0  0  0
  -13.9640   -4.9794  -12.4043 C   0  0  0  0  0  0  0  0  0  0  0  0
  -13.8167   -3.7200  -11.8691 C   0  0  0  0  0  0  0  0  0  0  0  0
  -13.3137   -3.4866  -10.6492 N   0  0  0  0  0  0  0  0  0  0  0  0
  -12.9557   -4.5729   -9.9335 C   0  0  0  0  0  0  0  0  0  0  0  0
  -13.0810   -5.8448  -10.3951 N   0  0  0  0  0  0  0  0  0  0  0  0
  -12.3857   -4.3596   -8.5262 C   0  0  0  0  0  0  0  0  0  0  0  0
  -11.0290   -4.5296   -8.4484 F   0  0  0  0  0  0  0  0  0  0  0  0
  -12.6174   -3.1059   -8.0331 F   0  0  0  0  0  0  0  0  0  0  0  0
  -12.9042   -5.2217   -7.6002 F   0  0  0  0  0  0  0  0  0  0  0  0
  -14.7505   -7.7341  -13.0410 C   0  0  0  0  0  0  0  0  0  0  0  0
  -13.7327   -7.3549  -12.0747 N   0  0  0  0  0  0  0  0  0  0  0  0
  -12.7695   -8.3505  -11.6315 C   0  0  0  0  0  0  0  0  0  0  0  0
  -16.1951    1.6356  -15.2560 C   0  0  0  0  0  0  0  0  0  0  0  0
  -15.9594    2.7474  -16.0809 C   0  0  0  0  0  0  0  0  0  0  0  0
  -16.9493    3.6952  -16.3077 C   0  0  0  0  0  0  0  0  0  0  0  0
  -18.1994    3.5464  -15.7169 C   0  0  0  0  0  0  0  0  0  0  0  0
  -18.4872    2.4414  -14.9135 C   0  0  0  0  0  0  0  0  0  0  0  0
  -17.4724    1.4944  -14.6810 C   0  0  0  0  0  0  0  0  0  0  0  0
  -19.7652    2.2273  -14.3348 N   0  0  0  0  0  0  0  0  0  0  0  0
  -20.5949    1.1535  -14.5849 C   0  0  0  0  0  0  0  0  0  0  0  0
  -20.3763    0.2082  -15.3233 O   0  0  0  0  0  0  0  0  0  0  0  0
  -21.8031    1.2515  -13.9236 N   0  0  0  0  0  0  0  0  0  0  0  0
  -20.0843    2.9076  -13.6644 H   0  0  0  0  0  0  0  0  0  0  0  0
  -21.8040    1.7266  -13.0354 H   0  0  0  0  0  0  0  0  0  0  0  0
  -22.7610    0.1467  -14.0929 C   0  0  0  0  0  0  0  0  0  0  0  0
  -23.0670   -0.6817  -12.8346 C   0  0  0  0  0  0  0  0  0  0  0  0
  -22.8731   -2.0060  -13.0362 F   0  0  0  0  0  0  0  0  0  0  0  0
  -22.2299   -0.3147  -11.8307 F   0  0  0  0  0  0  0  0  0  0  0  0
  -24.3265   -0.5019  -12.3896 F   0  0  0  0  0  0  0  0  0  0  0  0
 20 21  1  0  0  0
 21 22  1  0  0  0
 21 10  1  0  0  0
 10 11  1  0  0  0
 10 15  2  0  0  0
 11 12  2  0  0  0
 12  1  1  0  0  0
 12 13  1  0  0  0
  1  2  1  0  0  0
  1  9  2  0  0  0
  2  3  2  0  0  0
  3  4  1  0  0  0
  4  5  1  0  0  0
  4  8  1  0  0  0
  5 23  1  0  0  0
  5  6  2  0  0  0
 23 24  1  0  0  0
 23 28  2  0  0  0
 24 25  2  0  0  0
 25 26  1  0  0  0
 26 27  2  0  0  0
 27 29  1  0  0  0
 27 28  1  0  0  0
 29 30  1  0  0  0
 29 33  1  0  0  0
 30 31  2  0  0  0
 30 32  1  0  0  0
 32 35  1  0  0  0
 32 34  1  0  0  0
 35 36  1  0  0  0
 36 37  1  0  0  0
 36 38  1  0  0  0
 36 39  1  0  0  0
  6  7  1  0  0  0
  7  8  2  0  0  0
  8  9  1  0  0  0
 13 14  2  0  0  0
 14 16  1  0  0  0
 14 15  1  0  0  0
 16 17  1  0  0  0
 16 18  1  0  0  0
 16 19  1  0  0  0
M  END
> <minimizedAffinity>
-9.98782

$$$$
