CHEMBL4248398


 25 28  0  0  0  0  0  0  0  0999 V2000
  -14.9030   -4.1691  -11.1540 C   0  0  0  0  0  0  0  0  0  0  0  0
  -16.0321   -3.6234  -11.7427 C   0  0  0  0  0  0  0  0  0  0  0  0
  -15.9004   -2.5405  -12.6242 C   0  0  0  0  0  0  0  0  0  0  0  0
  -14.6478   -1.9727  -12.9549 C   0  0  0  0  0  0  0  0  0  0  0  0
  -13.5174   -2.5463  -12.3533 C   0  0  0  0  0  0  0  0  0  0  0  0
  -13.6572   -3.6191  -11.4518 C   0  0  0  0  0  0  0  0  0  0  0  0
  -11.8367   -2.0615  -12.6952 S   0  0  0  0  0  0  0  0  0  0  0  0
  -12.0273   -0.5419  -13.6377 C   0  0  0  0  0  0  0  0  0  0  0  0
  -13.3623   -0.2067  -14.1987 C   0  0  0  0  0  0  0  0  0  0  0  0
  -13.4656    0.8619  -15.0706 C   0  0  0  0  0  0  0  0  0  0  0  0
  -14.6121    1.2907  -15.6216 N   0  0  0  0  0  0  0  0  0  0  0  0
  -15.7198    0.6171  -15.2982 C   0  0  0  0  0  0  0  0  0  0  0  0
  -15.7179   -0.4235  -14.4514 N   0  0  0  0  0  0  0  0  0  0  0  0
  -14.5502   -0.8337  -13.8946 C   0  0  0  0  0  0  0  0  0  0  0  0
  -13.7432   -5.2764   -9.4130 C   0  0  0  0  0  0  0  0  0  0  0  0
  -14.8817   -5.2029  -10.2623 O   0  0  0  0  0  0  0  0  0  0  0  0
  -16.8773    1.0467  -15.9467 N   0  0  0  0  0  0  0  0  0  0  0  0
  -16.9297    0.5905  -16.8462 H   0  0  0  0  0  0  0  0  0  0  0  0
  -18.0458    1.6446  -15.4642 C   0  0  0  0  0  0  0  0  0  0  0  0
  -18.1279    3.0451  -15.4102 C   0  0  0  0  0  0  0  0  0  0  0  0
  -19.2996    3.6859  -14.9941 C   0  0  0  0  0  0  0  0  0  0  0  0
  -20.4098    2.9367  -14.6178 C   0  0  0  0  0  0  0  0  0  0  0  0
  -20.3329    1.5485  -14.6398 C   0  0  0  0  0  0  0  0  0  0  0  0
  -21.8268    0.5087  -14.1286 Br  0  0  0  0  0  0  0  0  0  0  0  0
  -19.1629    0.9120  -15.0498 C   0  0  0  0  0  0  0  0  0  0  0  0
 15 16  1  0  0  0
 16  1  1  0  0  0
  1  2  1  0  0  0
  1  6  2  0  0  0
  2  3  2  0  0  0
  3  4  1  0  0  0
  4  5  2  0  0  0
  4 14  1  0  0  0
  5  6  1  0  0  0
  5  7  1  0  0  0
  7  8  1  0  0  0
  8  9  1  0  0  0
  9 10  1  0  0  0
  9 14  2  0  0  0
 10 11  2  0  0  0
 11 12  1  0  0  0
 12 17  1  0  0  0
 12 13  2  0  0  0
 17 19  1  0  0  0
 17 18  1  0  0  0
 19 20  1  0  0  0
 19 25  2  0  0  0
 20 21  2  0  0  0
 21 22  1  0  0  0
 22 23  2  0  0  0
 23 24  1  0  0  0
 23 25  1  0  0  0
 13 14  1  0  0  0
M  END
> <minimizedAffinity>
-7.80351

$$$$
