CHEMBL194498


 36 39  0  0  0  0  0  0  0  0999 V2000
  -12.4698   -2.7532  -12.9467 C   0  0  0  0  0  0  0  0  0  0  0  0
  -11.2406   -2.6912  -13.3814 N   0  0  0  0  0  0  0  0  0  0  0  0
  -10.8565   -1.6958  -14.2317 C   0  0  0  0  0  0  0  0  0  0  0  0
  -11.6031   -0.7513  -14.6954 N   0  0  0  0  0  0  0  0  0  0  0  0
  -12.8774   -0.8130  -14.2809 N   0  0  0  0  0  0  0  0  0  0  0  0
  -13.8424    0.0619  -14.6785 C   0  0  0  0  0  0  0  0  0  0  0  0
  -15.0254   -0.3132  -14.0898 C   0  0  0  0  0  0  0  0  0  0  0  0
  -14.7790   -1.5060  -13.3082 C   0  0  0  0  0  0  0  0  0  0  0  0
  -13.4014   -1.7540  -13.4297 C   0  0  0  0  0  0  0  0  0  0  0  0
  -16.3030    0.4391  -14.3131 C   0  0  0  0  0  0  0  0  0  0  0  0
  -16.4673    1.7266  -14.0730 N   0  0  0  0  0  0  0  0  0  0  0  0
  -17.7677    2.0462  -14.3802 N   0  0  0  0  0  0  0  0  0  0  0  0
  -18.3285    0.9323  -14.7964 C   0  0  0  0  0  0  0  0  0  0  0  0
  -17.4625   -0.1307  -14.7972 O   0  0  0  0  0  0  0  0  0  0  0  0
  -19.7270    0.7024  -15.2331 C   0  0  0  0  0  0  0  0  0  0  0  0
  -19.9326   -0.5871  -15.6197 F   0  0  0  0  0  0  0  0  0  0  0  0
  -20.6182    0.9463  -14.2324 F   0  0  0  0  0  0  0  0  0  0  0  0
  -15.8696   -2.2888  -12.5987 C   0  0  0  0  0  0  0  0  0  0  0  0
  -16.2030   -3.6181  -13.2742 C   0  0  0  0  0  0  0  0  0  0  0  0
  -15.6784   -2.4017  -11.0880 C   0  0  0  0  0  0  0  0  0  0  0  0
  -12.7897   -3.7296  -12.0322 N   0  0  0  0  0  0  0  0  0  0  0  0
  -12.9613   -3.4591  -11.0786 H   0  0  0  0  0  0  0  0  0  0  0  0
  -13.2523   -6.9926  -13.8009 C   0  0  0  0  0  0  0  0  0  0  0  0
  -12.9282   -5.6479  -13.5634 C   0  0  0  0  0  0  0  0  0  0  0  0
  -13.1011   -5.0764  -12.2987 C   0  0  0  0  0  0  0  0  0  0  0  0
  -13.5676   -5.9045  -11.2654 C   0  0  0  0  0  0  0  0  0  0  0  0
  -13.7441   -5.3897  -10.0388 F   0  0  0  0  0  0  0  0  0  0  0  0
  -13.8600   -7.2497  -11.4746 C   0  0  0  0  0  0  0  0  0  0  0  0
  -13.7020   -7.7860  -12.7471 C   0  0  0  0  0  0  0  0  0  0  0  0
  -14.0097   -9.0769  -12.9426 F   0  0  0  0  0  0  0  0  0  0  0  0
  -14.2711   -7.3573  -15.9794 N   0  0  0  0  0  0  0  0  0  0  0  0
  -13.1489   -7.4907  -15.1913 C   0  0  0  0  0  0  0  0  0  0  0  0
  -12.0964   -8.0107  -15.5518 O   0  0  0  0  0  0  0  0  0  0  0  0
  -14.9708   -6.6508  -15.7732 H   0  0  0  0  0  0  0  0  0  0  0  0
  -13.7818   -6.3648  -18.0011 C   0  0  0  0  0  0  0  0  0  0  0  0
  -14.0577   -7.6071  -17.3572 O   0  0  0  0  0  0  0  0  0  0  0  0
 35 36  1  0  0  0
 36 31  1  0  0  0
 31 32  1  0  0  0
 31 34  1  0  0  0
 32 33  2  0  0  0
 32 23  1  0  0  0
 23 24  1  0  0  0
 23 29  2  0  0  0
 24 25  2  0  0  0
 25 21  1  0  0  0
 25 26  1  0  0  0
 21  1  1  0  0  0
 21 22  1  0  0  0
  1  2  2  0  0  0
  1  9  1  0  0  0
  2  3  1  0  0  0
  3  4  2  0  0  0
  4  5  1  0  0  0
  5  6  1  0  0  0
  5  9  1  0  0  0
  6  7  2  0  0  0
  7 10  1  0  0  0
  7  8  1  0  0  0
 10 11  2  0  0  0
 10 14  1  0  0  0
 11 12  1  0  0  0
 12 13  2  0  0  0
 13 15  1  0  0  0
 13 14  1  0  0  0
 15 16  1  0  0  0
 15 17  1  0  0  0
  8 18  1  0  0  0
  8  9  2  0  0  0
 18 19  1  0  0  0
 18 20  1  0  0  0
 26 27  1  0  0  0
 26 28  2  0  0  0
 28 29  1  0  0  0
 29 30  1  0  0  0
M  END
> <minimizedAffinity>
-7.50208

$$$$
