CHEMBL3899485


 39 43  0  0  0  0  0  0  0  0999 V2000
  -17.5724    1.0357  -15.0178 C   0  0  0  0  0  0  0  0  0  0  0  0
  -18.8739    0.5750  -14.7701 C   0  0  0  0  0  0  0  0  0  0  0  0
  -19.9644    1.4759  -14.5974 C   0  0  0  0  0  0  0  0  0  0  0  0
  -21.3047    1.1502  -14.3666 C   0  0  0  0  0  0  0  0  0  0  0  0
  -22.2842    2.0862  -14.3090 N   0  0  0  0  0  0  0  0  0  0  0  0
  -21.9209    3.3587  -14.4516 C   0  0  0  0  0  0  0  0  0  0  0  0
  -20.6764    3.7826  -14.6212 N   0  0  0  0  0  0  0  0  0  0  0  0
  -19.7381    2.8386  -14.6969 C   0  0  0  0  0  0  0  0  0  0  0  0
  -18.4620    3.2715  -14.9256 C   0  0  0  0  0  0  0  0  0  0  0  0
  -17.3601    2.4142  -15.1147 C   0  0  0  0  0  0  0  0  0  0  0  0
  -15.8775   -0.4181  -14.1452 C   0  0  0  0  0  0  0  0  0  0  0  0
  -16.6771    0.0261  -15.2328 O   0  0  0  0  0  0  0  0  0  0  0  0
  -21.6692   -0.2089  -14.1801 N   0  0  0  0  0  0  0  0  0  0  0  0
  -20.8451   -0.7338  -13.9053 H   0  0  0  0  0  0  0  0  0  0  0  0
  -22.8407   -0.5872  -13.4945 C   0  0  0  0  0  0  0  0  0  0  0  0
  -22.8020   -0.7913  -12.1091 C   0  0  0  0  0  0  0  0  0  0  0  0
  -23.9193   -1.2638  -11.4260 C   0  0  0  0  0  0  0  0  0  0  0  0
  -25.0994   -1.5291  -12.1200 C   0  0  0  0  0  0  0  0  0  0  0  0
  -26.4229   -2.1771  -11.2234 Cl  0  0  0  0  0  0  0  0  0  0  0  0
  -25.1605   -1.2892  -13.4959 C   0  0  0  0  0  0  0  0  0  0  0  0
  -26.5896   -1.5917  -14.4206 Cl  0  0  0  0  0  0  0  0  0  0  0  0
  -24.0371   -0.8099  -14.1802 C   0  0  0  0  0  0  0  0  0  0  0  0
  -16.1219    2.9242  -15.4518 O   0  0  0  0  0  0  0  0  0  0  0  0
  -16.2223    4.1856  -16.1284 C   0  0  0  0  0  0  0  0  0  0  0  0
  -15.0446    4.5288  -17.0043 C   0  0  0  0  0  0  0  0  0  0  0  0
  -15.4693    4.5528  -18.4801 C   0  0  0  0  0  0  0  0  0  0  0  0
  -14.3181    4.7765  -19.3771 N   0  0  0  0  0  0  0  0  0  0  0  0
  -13.3089    3.7335  -19.0766 C   0  0  0  0  0  0  0  0  0  0  0  0
  -12.9080    3.6763  -17.5961 C   0  0  0  0  0  0  0  0  0  0  0  0
  -14.0567    3.5020  -16.7643 O   0  0  0  0  0  0  0  0  0  0  0  0
  -13.8101    6.1495  -19.2151 C   0  0  0  0  0  0  0  0  0  0  0  0
  -14.9072    7.2067  -19.2520 C   0  0  0  0  0  0  0  0  0  0  0  0
  -14.8937    7.9739  -20.5699 C   0  0  0  0  0  0  0  0  0  0  0  0
  -16.1961    8.6895  -20.7886 C   0  0  0  0  0  0  0  0  0  0  0  0
  -16.4537    9.8925  -20.1193 C   0  0  0  0  0  0  0  0  0  0  0  0
  -17.6549   10.5674  -20.3274 C   0  0  0  0  0  0  0  0  0  0  0  0
  -18.6020   10.0377  -21.2070 C   0  0  0  0  0  0  0  0  0  0  0  0
  -18.3630    8.8269  -21.8548 C   0  0  0  0  0  0  0  0  0  0  0  0
  -17.1649    8.1493  -21.6427 C   0  0  0  0  0  0  0  0  0  0  0  0
 11 12  1  0  0  0
 12  1  1  0  0  0
  1  2  1  0  0  0
  1 10  2  0  0  0
  2  3  2  0  0  0
  3  4  1  0  0  0
  3  8  1  0  0  0
  4 13  1  0  0  0
  4  5  2  0  0  0
 13 15  1  0  0  0
 13 14  1  0  0  0
 15 16  1  0  0  0
 15 22  2  0  0  0
 16 17  2  0  0  0
 17 18  1  0  0  0
 18 19  1  0  0  0
 18 20  2  0  0  0
 20 21  1  0  0  0
 20 22  1  0  0  0
  5  6  1  0  0  0
  6  7  2  0  0  0
  7  8  1  0  0  0
  8  9  2  0  0  0
  9 10  1  0  0  0
 10 23  1  0  0  0
 23 24  1  0  0  0
 24 25  1  0  0  0
 25 26  1  0  0  0
 25 30  1  0  0  0
 26 27  1  0  0  0
 27 31  1  0  0  0
 27 28  1  0  0  0
 31 32  1  0  0  0
 32 33  1  0  0  0
 33 34  1  0  0  0
 34 35  1  0  0  0
 34 39  2  0  0  0
 35 36  2  0  0  0
 36 37  1  0  0  0
 37 38  2  0  0  0
 38 39  1  0  0  0
 28 29  1  0  0  0
 29 30  1  0  0  0
M  END
> <minimizedAffinity>
-9.31320

$$$$
