CHEMBL469023


 31 35  0  0  0  0  0  0  0  0999 V2000
  -14.4872   -0.6568  -13.5594 C   0  0  0  0  0  0  0  0  0  0  0  0
  -13.1721   -1.0178  -13.2033 C   0  0  0  0  0  0  0  0  0  0  0  0
  -12.1502   -0.9979  -14.1449 C   0  0  0  0  0  0  0  0  0  0  0  0
  -12.4473   -0.6842  -15.4619 C   0  0  0  0  0  0  0  0  0  0  0  0
  -13.7537   -0.3442  -15.8270 C   0  0  0  0  0  0  0  0  0  0  0  0
  -14.7940   -0.2574  -14.8869 C   0  0  0  0  0  0  0  0  0  0  0  0
  -16.2494    0.1758  -12.2175 O   0  0  0  0  0  0  0  0  0  0  0  0
  -15.5496   -0.7892  -12.5056 C   0  0  0  0  0  0  0  0  0  0  0  0
  -15.7498   -2.0941  -11.8750 C   0  0  0  0  0  0  0  0  0  0  0  0
  -15.6823   -2.3187  -10.5057 C   0  0  0  0  0  0  0  0  0  0  0  0
  -15.8899   -3.6553  -10.2703 N   0  0  0  0  0  0  0  0  0  0  0  0
  -16.0493   -4.3090  -11.4585 C   0  0  0  0  0  0  0  0  0  0  0  0
  -16.2160   -5.6391  -11.5728 N   0  0  0  0  0  0  0  0  0  0  0  0
  -16.3219   -6.0473  -12.8577 C   0  0  0  0  0  0  0  0  0  0  0  0
  -16.3005   -5.2237  -13.9743 C   0  0  0  0  0  0  0  0  0  0  0  0
  -16.1360   -3.8509  -13.7970 C   0  0  0  0  0  0  0  0  0  0  0  0
  -15.9905   -3.3684  -12.4838 C   0  0  0  0  0  0  0  0  0  0  0  0
  -15.8968   -4.1145   -9.3706 H   0  0  0  0  0  0  0  0  0  0  0  0
  -16.0585    0.1719  -15.2514 N   0  0  0  0  0  0  0  0  0  0  0  0
  -16.8413   -0.4108  -14.9692 H   0  0  0  0  0  0  0  0  0  0  0  0
  -16.4146    1.4360  -15.8723 C   0  0  0  0  0  0  0  0  0  0  0  0
  -17.8200    1.8919  -15.5316 C   0  0  0  0  0  0  0  0  0  0  0  0
  -18.1172    3.2602  -15.5261 C   0  0  0  0  0  0  0  0  0  0  0  0
  -19.3796    3.7164  -15.1259 C   0  0  0  0  0  0  0  0  0  0  0  0
  -20.3799    2.8431  -14.7260 C   0  0  0  0  0  0  0  0  0  0  0  0
  -21.5742    3.3378  -14.3488 N   0  0  0  0  0  0  0  0  0  0  0  0
  -22.5355    2.4607  -13.9865 C   0  0  0  0  0  0  0  0  0  0  0  0
  -22.3663    1.0910  -13.9787 C   0  0  0  0  0  0  0  0  0  0  0  0
  -21.1233    0.5850  -14.3549 C   0  0  0  0  0  0  0  0  0  0  0  0
  -20.0983    1.4625  -14.7350 C   0  0  0  0  0  0  0  0  0  0  0  0
  -18.8237    1.0003  -15.1206 C   0  0  0  0  0  0  0  0  0  0  0  0
  7  8  2  0  0  0
  8  1  1  0  0  0
  8  9  1  0  0  0
  1  2  1  0  0  0
  1  6  2  0  0  0
  2  3  2  0  0  0
  3  4  1  0  0  0
  4  5  2  0  0  0
  5  6  1  0  0  0
  6 19  1  0  0  0
 19 21  1  0  0  0
 19 20  1  0  0  0
 21 22  1  0  0  0
 22 23  1  0  0  0
 22 31  2  0  0  0
 23 24  2  0  0  0
 24 25  1  0  0  0
 25 26  1  0  0  0
 25 30  2  0  0  0
 26 27  2  0  0  0
 27 28  1  0  0  0
 28 29  2  0  0  0
 29 30  1  0  0  0
 30 31  1  0  0  0
  9 10  2  0  0  0
  9 17  1  0  0  0
 10 11  1  0  0  0
 11 12  1  0  0  0
 11 18  1  0  0  0
 12 13  1  0  0  0
 12 17  2  0  0  0
 13 14  2  0  0  0
 14 15  1  0  0  0
 15 16  2  0  0  0
 16 17  1  0  0  0
M  END
> <minimizedAffinity>
-9.60446

$$$$
