CHEMBL238530


 33 35  0  0  0  0  0  0  0  0999 V2000
  -15.3315    0.3091  -13.6932 C   0  0  0  0  0  0  0  0  0  0  0  0
  -15.0864    0.5887  -12.5230 O   0  0  0  0  0  0  0  0  0  0  0  0
  -15.1713   -0.9508  -14.2577 N   0  0  0  0  0  0  0  0  0  0  0  0
  -15.1811   -0.9721  -15.2717 H   0  0  0  0  0  0  0  0  0  0  0  0
  -13.4672    1.8865  -15.5826 C   0  0  0  0  0  0  0  0  0  0  0  0
  -14.9002    2.0317  -15.4710 N   0  0  0  0  0  0  0  0  0  0  0  0
  -15.6689    2.8465  -16.2528 C   0  0  0  0  0  0  0  0  0  0  0  0
  -16.9472    2.7000  -15.9879 N   0  0  0  0  0  0  0  0  0  0  0  0
  -16.9941    1.7941  -14.9728 C   0  0  0  0  0  0  0  0  0  0  0  0
  -15.7413    1.3182  -14.6410 C   0  0  0  0  0  0  0  0  0  0  0  0
  -18.1493    1.4291  -14.3951 N   0  0  0  0  0  0  0  0  0  0  0  0
  -18.3612    1.6640  -13.4306 H   0  0  0  0  0  0  0  0  0  0  0  0
  -19.2233    0.8138  -15.1446 C   0  0  0  0  0  0  0  0  0  0  0  0
  -20.5731    1.3191  -14.7102 C   0  0  0  0  0  0  0  0  0  0  0  0
  -21.5685    0.4264  -14.3030 C   0  0  0  0  0  0  0  0  0  0  0  0
  -22.7704    0.9364  -13.8382 C   0  0  0  0  0  0  0  0  0  0  0  0
  -23.0462    2.2563  -13.7553 N   0  0  0  0  0  0  0  0  0  0  0  0
  -22.0754    3.1027  -14.1576 C   0  0  0  0  0  0  0  0  0  0  0  0
  -20.8411    2.6901  -14.6371 C   0  0  0  0  0  0  0  0  0  0  0  0
  -14.8326   -2.1378  -13.5804 C   0  0  0  0  0  0  0  0  0  0  0  0
  -13.5753   -2.3526  -13.0274 C   0  0  0  0  0  0  0  0  0  0  0  0
  -13.2657   -3.5667  -12.4153 C   0  0  0  0  0  0  0  0  0  0  0  0
  -14.2070   -4.6066  -12.3338 C   0  0  0  0  0  0  0  0  0  0  0  0
  -15.5108   -4.3800  -12.8315 C   0  0  0  0  0  0  0  0  0  0  0  0
  -15.8050   -3.1347  -13.4460 C   0  0  0  0  0  0  0  0  0  0  0  0
  -13.7706   -5.9303  -11.7379 C   0  0  0  0  0  0  0  0  0  0  0  0
  -12.5118   -5.8943  -11.2152 F   0  0  0  0  0  0  0  0  0  0  0  0
  -14.5749   -6.3395  -10.7230 F   0  0  0  0  0  0  0  0  0  0  0  0
  -13.7501   -6.9277  -12.6619 F   0  0  0  0  0  0  0  0  0  0  0  0
  -16.6266   -5.4061  -12.7531 C   0  0  0  0  0  0  0  0  0  0  0  0
  -16.2680   -6.6770  -13.0577 F   0  0  0  0  0  0  0  0  0  0  0  0
  -17.1688   -5.4651  -11.5047 F   0  0  0  0  0  0  0  0  0  0  0  0
  -17.6578   -5.1018  -13.5887 F   0  0  0  0  0  0  0  0  0  0  0  0
  5  6  1  0  0  0
  6  7  1  0  0  0
  6 10  1  0  0  0
  7  8  2  0  0  0
  8  9  1  0  0  0
  9 11  1  0  0  0
  9 10  2  0  0  0
 11 13  1  0  0  0
 11 12  1  0  0  0
 13 14  1  0  0  0
 14 15  1  0  0  0
 14 19  2  0  0  0
 15 16  2  0  0  0
 16 17  1  0  0  0
 17 18  2  0  0  0
 18 19  1  0  0  0
 10  1  1  0  0  0
  1  2  2  0  0  0
  1  3  1  0  0  0
  3 20  1  0  0  0
  3  4  1  0  0  0
 20 21  1  0  0  0
 20 25  2  0  0  0
 21 22  2  0  0  0
 22 23  1  0  0  0
 23 26  1  0  0  0
 23 24  2  0  0  0
 26 27  1  0  0  0
 26 28  1  0  0  0
 26 29  1  0  0  0
 24 30  1  0  0  0
 24 25  1  0  0  0
 30 31  1  0  0  0
 30 32  1  0  0  0
 30 33  1  0  0  0
M  END
> <minimizedAffinity>
-9.03463

$$$$
