CHEMBL1084546


 38 41  0  0  0  0  0  0  0  0999 V2000
  -14.3553   -0.0454  -14.0114 C   0  0  0  0  0  0  0  0  0  0  0  0
  -15.5110    0.0663  -14.7044 N   0  0  0  0  0  0  0  0  0  0  0  0
  -15.7463    1.1870  -15.4050 C   0  0  0  0  0  0  0  0  0  0  0  0
  -14.9005    2.2206  -15.4297 N   0  0  0  0  0  0  0  0  0  0  0  0
  -13.7928    2.1193  -14.6852 C   0  0  0  0  0  0  0  0  0  0  0  0
  -13.4646    1.0067  -13.9434 C   0  0  0  0  0  0  0  0  0  0  0  0
  -12.1746    1.0139  -13.2117 C   0  0  0  0  0  0  0  0  0  0  0  0
  -11.7604   -0.2029  -12.7587 F   0  0  0  0  0  0  0  0  0  0  0  0
  -11.1530    1.4645  -13.9970 F   0  0  0  0  0  0  0  0  0  0  0  0
  -12.1863    1.8354  -12.1258 F   0  0  0  0  0  0  0  0  0  0  0  0
  -14.1308   -1.2311  -13.2851 N   0  0  0  0  0  0  0  0  0  0  0  0
  -13.9116   -2.0151  -13.8974 H   0  0  0  0  0  0  0  0  0  0  0  0
  -15.2472   -1.5857  -12.3945 C   0  0  0  0  0  0  0  0  0  0  0  0
  -14.8862   -3.9618  -11.5984 C   0  0  0  0  0  0  0  0  0  0  0  0
  -15.0795   -5.3009  -11.6086 N   0  0  0  0  0  0  0  0  0  0  0  0
  -15.9334   -5.7855  -12.5332 C   0  0  0  0  0  0  0  0  0  0  0  0
  -16.6074   -4.9943  -13.4469 C   0  0  0  0  0  0  0  0  0  0  0  0
  -16.3958   -3.6189  -13.4049 C   0  0  0  0  0  0  0  0  0  0  0  0
  -15.5311   -3.0663  -12.4527 C   0  0  0  0  0  0  0  0  0  0  0  0
  -14.2863   -3.7327   -9.2224 C   0  0  0  0  0  0  0  0  0  0  0  0
  -13.9481   -3.5174  -10.6358 N   0  0  0  0  0  0  0  0  0  0  0  0
  -12.3315   -3.6363  -11.0900 S   0  0  0  0  0  0  0  0  0  0  0  0
  -11.8393   -5.2717  -10.5654 C   0  0  0  0  0  0  0  0  0  0  0  0
  -12.2610   -3.5911  -12.5380 O   0  0  0  0  0  0  0  0  0  0  0  0
  -11.5870   -2.6777  -10.2960 O   0  0  0  0  0  0  0  0  0  0  0  0
  -16.9459    1.2788  -16.1119 N   0  0  0  0  0  0  0  0  0  0  0  0
  -16.7635    1.5408  -17.0715 H   0  0  0  0  0  0  0  0  0  0  0  0
  -18.1824    1.7311  -15.6089 C   0  0  0  0  0  0  0  0  0  0  0  0
  -18.4209    3.1228  -15.5445 C   0  0  0  0  0  0  0  0  0  0  0  0
  -19.6404    3.6369  -15.0850 C   0  0  0  0  0  0  0  0  0  0  0  0
  -20.5888    2.7328  -14.6626 C   0  0  0  0  0  0  0  0  0  0  0  0
  -20.3730    1.3601  -14.6908 C   0  0  0  0  0  0  0  0  0  0  0  0
  -19.1820    0.8434  -15.1699 C   0  0  0  0  0  0  0  0  0  0  0  0
  -21.5768    0.6524  -14.1455 C   0  0  0  0  0  0  0  0  0  0  0  0
  -22.5166    1.8211  -13.8225 C   0  0  0  0  0  0  0  0  0  0  0  0
  -23.6397    1.7453  -13.3539 O   0  0  0  0  0  0  0  0  0  0  0  0
  -21.8517    2.9963  -14.1580 N   0  0  0  0  0  0  0  0  0  0  0  0
  -22.2609    3.9096  -14.0350 H   0  0  0  0  0  0  0  0  0  0  0  0
 20 21  1  0  0  0
 21 14  1  0  0  0
 21 22  1  0  0  0
 14 15  1  0  0  0
 14 19  2  0  0  0
 15 16  2  0  0  0
 16 17  1  0  0  0
 17 18  2  0  0  0
 18 19  1  0  0  0
 19 13  1  0  0  0
 13 11  1  0  0  0
 11  1  1  0  0  0
 11 12  1  0  0  0
  1  2  1  0  0  0
  1  6  2  0  0  0
  2  3  2  0  0  0
  3 26  1  0  0  0
  3  4  1  0  0  0
 26 28  1  0  0  0
 26 27  1  0  0  0
 28 29  1  0  0  0
 28 33  2  0  0  0
 29 30  2  0  0  0
 30 31  1  0  0  0
 31 32  2  0  0  0
 31 37  1  0  0  0
 32 33  1  0  0  0
 32 34  1  0  0  0
 34 35  1  0  0  0
 35 36  2  0  0  0
 35 37  1  0  0  0
 37 38  1  0  0  0
  4  5  2  0  0  0
  5  6  1  0  0  0
  6  7  1  0  0  0
  7  8  1  0  0  0
  7  9  1  0  0  0
  7 10  1  0  0  0
 22 23  1  0  0  0
 22 24  2  0  0  0
 22 25  2  0  0  0
M  END
> <minimizedAffinity>
-8.92698

$$$$
