CHEMBL474015


 42 46  0  0  0  0  0  0  0  0999 V2000
  -23.1130    0.9418  -13.6464 C   0  0  0  0  0  0  0  0  0  0  0  0
  -23.7816    1.8945  -13.2646 O   0  0  0  0  0  0  0  0  0  0  0  0
  -23.5007   -0.3814  -13.6464 N   0  0  0  0  0  0  0  0  0  0  0  0
  -22.9077   -1.0436  -14.1295 H   0  0  0  0  0  0  0  0  0  0  0  0
  -19.1884    1.9311  -15.1363 C   0  0  0  0  0  0  0  0  0  0  0  0
  -19.6263    0.6010  -15.2144 C   0  0  0  0  0  0  0  0  0  0  0  0
  -20.9235    0.2551  -14.7750 C   0  0  0  0  0  0  0  0  0  0  0  0
  -21.7767    1.2371  -14.2462 C   0  0  0  0  0  0  0  0  0  0  0  0
  -21.3374    2.5626  -14.1790 C   0  0  0  0  0  0  0  0  0  0  0  0
  -20.0611    2.9044  -14.6237 C   0  0  0  0  0  0  0  0  0  0  0  0
  -16.7946    1.4254  -15.5109 N   0  0  0  0  0  0  0  0  0  0  0  0
  -17.7953    2.3838  -15.4369 C   0  0  0  0  0  0  0  0  0  0  0  0
  -17.6469    3.5863  -15.6394 O   0  0  0  0  0  0  0  0  0  0  0  0
  -17.0700    0.4592  -15.5767 H   0  0  0  0  0  0  0  0  0  0  0  0
  -14.7921    0.8457  -13.4977 N   0  0  0  0  0  0  0  0  0  0  0  0
  -14.4637    1.4788  -14.7144 C   0  0  0  0  0  0  0  0  0  0  0  0
  -13.0962    1.6687  -14.9985 C   0  0  0  0  0  0  0  0  0  0  0  0
  -12.6700    2.1587  -16.2330 C   0  0  0  0  0  0  0  0  0  0  0  0
  -13.6026    2.4349  -17.2180 C   0  0  0  0  0  0  0  0  0  0  0  0
  -14.9583    2.2094  -16.9716 C   0  0  0  0  0  0  0  0  0  0  0  0
  -15.4111    1.7012  -15.7423 C   0  0  0  0  0  0  0  0  0  0  0  0
  -14.0838    0.9760  -12.7823 H   0  0  0  0  0  0  0  0  0  0  0  0
  -15.7153    1.0491  -13.1414 H   0  0  0  0  0  0  0  0  0  0  0  0
  -24.7305   -0.8897  -13.1620 C   0  0  0  0  0  0  0  0  0  0  0  0
  -25.6874   -1.5280  -13.9471 C   0  0  0  0  0  0  0  0  0  0  0  0
  -26.8866   -1.9720  -13.3792 C   0  0  0  0  0  0  0  0  0  0  0  0
  -27.1406   -1.7786  -12.0196 C   0  0  0  0  0  0  0  0  0  0  0  0
  -26.1956   -1.1486  -11.2025 C   0  0  0  0  0  0  0  0  0  0  0  0
  -24.9987   -0.7141  -11.8010 C   0  0  0  0  0  0  0  0  0  0  0  0
  -26.5128   -0.8924   -9.8519 N   0  0  0  0  0  0  0  0  0  0  0  0
  -26.3021    0.0438   -9.5319 H   0  0  0  0  0  0  0  0  0  0  0  0
  -27.1491   -1.7360   -9.0052 C   0  0  0  0  0  0  0  0  0  0  0  0
  -27.3138   -3.0263   -9.1914 N   0  0  0  0  0  0  0  0  0  0  0  0
  -28.0501   -3.5798   -8.1779 C   0  0  0  0  0  0  0  0  0  0  0  0
  -28.4399   -2.7196   -7.1730 C   0  0  0  0  0  0  0  0  0  0  0  0
  -27.8177   -1.1552   -7.5216 S   0  0  0  0  0  0  0  0  0  0  0  0
  -29.2320   -3.0202   -5.9819 C   0  0  0  0  0  0  0  0  0  0  0  0
  -29.1362   -2.2059   -4.8450 C   0  0  0  0  0  0  0  0  0  0  0  0
  -29.8422   -2.5263   -3.6885 C   0  0  0  0  0  0  0  0  0  0  0  0
  -30.6350   -3.6594   -3.7007 C   0  0  0  0  0  0  0  0  0  0  0  0
  -30.7618   -4.4718   -4.7703 N   0  0  0  0  0  0  0  0  0  0  0  0
  -30.0591   -4.1355   -5.8807 C   0  0  0  0  0  0  0  0  0  0  0  0
 15 16  1  0  0  0
 15 22  1  0  0  0
 15 23  1  0  0  0
 16 17  1  0  0  0
 16 21  2  0  0  0
 17 18  2  0  0  0
 18 19  1  0  0  0
 19 20  2  0  0  0
 20 21  1  0  0  0
 21 11  1  0  0  0
 11 12  1  0  0  0
 11 14  1  0  0  0
 12 13  2  0  0  0
 12  5  1  0  0  0
  5  6  1  0  0  0
  5 10  2  0  0  0
  6  7  2  0  0  0
  7  8  1  0  0  0
  8  1  1  0  0  0
  8  9  2  0  0  0
  1  2  2  0  0  0
  1  3  1  0  0  0
  3 24  1  0  0  0
  3  4  1  0  0  0
 24 25  1  0  0  0
 24 29  2  0  0  0
 25 26  2  0  0  0
 26 27  1  0  0  0
 27 28  2  0  0  0
 28 30  1  0  0  0
 28 29  1  0  0  0
 30 32  1  0  0  0
 30 31  1  0  0  0
 32 33  2  0  0  0
 32 36  1  0  0  0
 33 34  1  0  0  0
 34 35  2  0  0  0
 35 37  1  0  0  0
 35 36  1  0  0  0
 37 38  1  0  0  0
 37 42  2  0  0  0
 38 39  2  0  0  0
 39 40  1  0  0  0
 40 41  2  0  0  0
 41 42  1  0  0  0
  9 10  1  0  0  0
M  END
> <minimizedAffinity>
-10.95926

$$$$
