CHEMBL2325087


 28 31  0  0  0  0  0  0  0  0999 V2000
  -30.3080   -6.1070   -4.9698 N   0  0  0  0  0  0  0  0  0  0  0  0
  -29.8501   -7.2827   -5.5215 N   0  0  0  0  0  0  0  0  0  0  0  0
  -29.7352   -7.0952   -6.7996 C   0  0  0  0  0  0  0  0  0  0  0  0
  -30.0652   -5.7089   -7.2820 C   0  0  0  0  0  0  0  0  0  0  0  0
  -30.4957   -5.0530   -5.9756 C   0  0  0  0  0  0  0  0  0  0  0  0
  -29.6759   -3.8108   -5.6753 C   0  0  0  0  0  0  0  0  0  0  0  0
  -28.3148   -3.9064   -5.3446 C   0  0  0  0  0  0  0  0  0  0  0  0
  -27.5564   -2.7576   -5.1076 C   0  0  0  0  0  0  0  0  0  0  0  0
  -28.1403   -1.4894   -5.1808 C   0  0  0  0  0  0  0  0  0  0  0  0
  -27.3848   -0.3270   -4.9545 C   0  0  0  0  0  0  0  0  0  0  0  0
  -27.9798    0.9338   -5.0178 C   0  0  0  0  0  0  0  0  0  0  0  0
  -29.3373    1.0484   -5.3020 C   0  0  0  0  0  0  0  0  0  0  0  0
  -30.1009   -0.0983   -5.5335 C   0  0  0  0  0  0  0  0  0  0  0  0
  -29.5156   -1.3728   -5.4861 C   0  0  0  0  0  0  0  0  0  0  0  0
  -30.2658   -2.5377   -5.7350 C   0  0  0  0  0  0  0  0  0  0  0  0
  -29.3214   -8.1676   -7.7349 C   0  0  0  0  0  0  0  0  0  0  0  0
  -28.1801   -7.9802   -8.5237 C   0  0  0  0  0  0  0  0  0  0  0  0
  -27.7525   -8.9869   -9.3941 C   0  0  0  0  0  0  0  0  0  0  0  0
  -28.4638  -10.1863   -9.4833 C   0  0  0  0  0  0  0  0  0  0  0  0
  -27.8797  -11.3922  -10.5721 Cl  0  0  0  0  0  0  0  0  0  0  0  0
  -29.6073  -10.3733   -8.6983 C   0  0  0  0  0  0  0  0  0  0  0  0
  -30.5396  -11.8283   -8.7528 Cl  0  0  0  0  0  0  0  0  0  0  0  0
  -30.0350   -9.3656   -7.8255 C   0  0  0  0  0  0  0  0  0  0  0  0
  -29.7041   -6.5875   -2.7739 N   0  0  0  0  0  0  0  0  0  0  0  0
  -30.6172   -6.0400   -3.6270 C   0  0  0  0  0  0  0  0  0  0  0  0
  -32.0076   -5.3867   -2.9682 S   0  0  0  0  0  0  0  0  0  0  0  0
  -29.9250   -6.4673   -1.7913 H   0  0  0  0  0  0  0  0  0  0  0  0
  -28.7272   -6.4663   -2.9955 H   0  0  0  0  0  0  0  0  0  0  0  0
 24 25  1  0  0  0
 24 27  1  0  0  0
 24 28  1  0  0  0
 25 26  2  0  0  0
 25  1  1  0  0  0
  1  2  1  0  0  0
  1  5  1  0  0  0
  2  3  2  0  0  0
  3 16  1  0  0  0
  3  4  1  0  0  0
 16 17  1  0  0  0
 16 23  2  0  0  0
 17 18  2  0  0  0
 18 19  1  0  0  0
 19 20  1  0  0  0
 19 21  2  0  0  0
 21 22  1  0  0  0
 21 23  1  0  0  0
  4  5  1  0  0  0
  5  6  1  0  0  0
  6  7  1  0  0  0
  6 15  2  0  0  0
  7  8  2  0  0  0
  8  9  1  0  0  0
  9 10  1  0  0  0
  9 14  2  0  0  0
 10 11  2  0  0  0
 11 12  1  0  0  0
 12 13  2  0  0  0
 13 14  1  0  0  0
 14 15  1  0  0  0
M  END
> <minimizedAffinity>
-9.41544

$$$$
