CHEMBL3221545


 37 40  0  0  0  0  0  0  0  0999 V2000
  -14.3107   -5.3853  -12.8510 C   0  0  0  0  0  0  0  0  0  0  0  0
  -15.3617   -6.1612  -12.4453 N   0  0  0  0  0  0  0  0  0  0  0  0
  -16.5120   -5.6194  -11.9943 C   0  0  0  0  0  0  0  0  0  0  0  0
  -16.6552   -4.2707  -11.9276 N   0  0  0  0  0  0  0  0  0  0  0  0
  -15.6550   -3.4407  -12.3299 C   0  0  0  0  0  0  0  0  0  0  0  0
  -15.8197   -2.0605  -12.2830 C   0  0  0  0  0  0  0  0  0  0  0  0
  -14.8197   -1.1312  -12.7173 C   0  0  0  0  0  0  0  0  0  0  0  0
  -13.5761   -1.7277  -13.2236 C   0  0  0  0  0  0  0  0  0  0  0  0
  -13.4604   -3.1148  -13.2479 C   0  0  0  0  0  0  0  0  0  0  0  0
  -14.4575   -3.9835  -12.8093 C   0  0  0  0  0  0  0  0  0  0  0  0
  -13.1078   -6.0207  -13.2680 N   0  0  0  0  0  0  0  0  0  0  0  0
  -12.2965   -6.0622  -12.6321 H   0  0  0  0  0  0  0  0  0  0  0  0
  -12.5990   -7.3004  -17.2744 C   0  0  0  0  0  0  0  0  0  0  0  0
  -12.3045   -5.9802  -16.9142 C   0  0  0  0  0  0  0  0  0  0  0  0
  -12.4511   -5.5555  -15.5881 C   0  0  0  0  0  0  0  0  0  0  0  0
  -12.8595   -6.4532  -14.5941 C   0  0  0  0  0  0  0  0  0  0  0  0
  -13.1004   -7.7918  -14.9485 C   0  0  0  0  0  0  0  0  0  0  0  0
  -12.9799   -8.2202  -16.2710 C   0  0  0  0  0  0  0  0  0  0  0  0
  -13.2629   -9.9338  -16.5753 Cl  0  0  0  0  0  0  0  0  0  0  0  0
  -13.4584   -7.2589  -19.5574 C   0  0  0  0  0  0  0  0  0  0  0  0
  -13.2878   -7.5400  -20.7533 O   0  0  0  0  0  0  0  0  0  0  0  0
  -12.5216   -7.6667  -18.6625 N   0  0  0  0  0  0  0  0  0  0  0  0
  -11.6665   -8.1091  -19.0071 H   0  0  0  0  0  0  0  0  0  0  0  0
  -14.4936   -6.4838  -19.1913 O   0  0  0  0  0  0  0  0  0  0  0  0
  -14.1248   -4.1409  -19.5259 C   0  0  0  0  0  0  0  0  0  0  0  0
  -14.9157   -5.3793  -19.9103 C   0  0  0  0  0  0  0  0  0  0  0  0
  -12.4381   -1.1619  -13.7181 O   0  0  0  0  0  0  0  0  0  0  0  0
  -11.2813   -0.5481  -13.2933 C   0  0  0  0  0  0  0  0  0  0  0  0
  -15.0974    0.2255  -12.6460 O   0  0  0  0  0  0  0  0  0  0  0  0
  -16.4088    0.6573  -12.9148 C   0  0  0  0  0  0  0  0  0  0  0  0
  -16.9432    0.7958  -14.3385 C   0  0  0  0  0  0  0  0  0  0  0  0
  -18.3121    1.4255  -14.2839 N   0  0  0  0  0  0  0  0  0  0  0  0
  -18.3036    2.8790  -14.6243 C   0  0  0  0  0  0  0  0  0  0  0  0
  -19.6990    3.5009  -14.5013 C   0  0  0  0  0  0  0  0  0  0  0  0
  -20.6453    2.7869  -15.4495 C   0  0  0  0  0  0  0  0  0  0  0  0
  -20.6689    1.3012  -15.0908 C   0  0  0  0  0  0  0  0  0  0  0  0
  -19.2494    0.7037  -15.1712 C   0  0  0  0  0  0  0  0  0  0  0  0
 25 26  1  0  0  0
 26 24  1  0  0  0
 24 20  1  0  0  0
 20 21  2  0  0  0
 20 22  1  0  0  0
 22 13  1  0  0  0
 22 23  1  0  0  0
 13 14  1  0  0  0
 13 18  2  0  0  0
 14 15  2  0  0  0
 15 16  1  0  0  0
 16 11  1  0  0  0
 16 17  2  0  0  0
 11  1  1  0  0  0
 11 12  1  0  0  0
  1  2  1  0  0  0
  1 10  2  0  0  0
  2  3  2  0  0  0
  3  4  1  0  0  0
  4  5  2  0  0  0
  5  6  1  0  0  0
  5 10  1  0  0  0
  6  7  2  0  0  0
  7 29  1  0  0  0
  7  8  1  0  0  0
 29 30  1  0  0  0
 30 31  1  0  0  0
 31 32  1  0  0  0
 32 33  1  0  0  0
 32 37  1  0  0  0
 33 34  1  0  0  0
 34 35  1  0  0  0
 35 36  1  0  0  0
 36 37  1  0  0  0
  8 27  1  0  0  0
  8  9  2  0  0  0
 27 28  1  0  0  0
  9 10  1  0  0  0
 17 18  1  0  0  0
 18 19  1  0  0  0
M  END
> <minimizedAffinity>
-7.15576

$$$$
