CHEMBL404005


 26 29  0  0  0  0  0  0  0  0999 V2000
  -29.6214   -5.8174   -7.2620 C   0  0  0  0  0  0  0  0  0  0  0  0
  -29.2938   -6.8325   -6.4454 C   0  0  0  0  0  0  0  0  0  0  0  0
  -28.2714   -6.8950   -5.3683 C   0  0  0  0  0  0  0  0  0  0  0  0
  -27.6677   -6.0132   -4.7984 O   0  0  0  0  0  0  0  0  0  0  0  0
  -28.1535   -8.2562   -5.1334 N   0  0  0  0  0  0  0  0  0  0  0  0
  -29.0685   -9.0446   -5.7857 N   0  0  0  0  0  0  0  0  0  0  0  0
  -29.7938   -8.2393   -6.5296 C   0  0  0  0  0  0  0  0  0  0  0  0
  -27.5409   -8.6448   -4.4250 H   0  0  0  0  0  0  0  0  0  0  0  0
  -30.0453   -3.4869   -4.9128 C   0  0  0  0  0  0  0  0  0  0  0  0
  -29.9966   -2.3226   -4.1224 C   0  0  0  0  0  0  0  0  0  0  0  0
  -29.3753   -1.1642   -4.5757 C   0  0  0  0  0  0  0  0  0  0  0  0
  -28.7558   -1.1338   -5.8211 C   0  0  0  0  0  0  0  0  0  0  0  0
  -28.7644   -2.3033   -6.5948 C   0  0  0  0  0  0  0  0  0  0  0  0
  -29.3962   -3.4867   -6.1796 C   0  0  0  0  0  0  0  0  0  0  0  0
  -29.2042   -4.4478   -7.2377 C   0  0  0  0  0  0  0  0  0  0  0  0
  -28.4292   -3.8451   -8.2037 C   0  0  0  0  0  0  0  0  0  0  0  0
  -28.2026   -2.5515   -7.8276 N   0  0  0  0  0  0  0  0  0  0  0  0
  -27.4482   -1.5914   -8.6017 C   0  0  0  0  0  0  0  0  0  0  0  0
  -31.7059   -4.4296   -3.5300 C   0  0  0  0  0  0  0  0  0  0  0  0
  -30.6557   -4.6413   -4.4730 O   0  0  0  0  0  0  0  0  0  0  0  0
  -30.9541   -8.7348   -7.2156 C   0  0  0  0  0  0  0  0  0  0  0  0
  -32.5506   -8.3437   -6.7202 S   0  0  0  0  0  0  0  0  0  0  0  0
  -33.2663   -9.2964   -7.8784 N   0  0  0  0  0  0  0  0  0  0  0  0
  -32.3889   -9.9555   -8.6094 N   0  0  0  0  0  0  0  0  0  0  0  0
  -31.0763   -9.6804   -8.2316 C   0  0  0  0  0  0  0  0  0  0  0  0
  -29.9985  -10.4088   -8.9516 C   0  0  0  0  0  0  0  0  0  0  0  0
 19 20  1  0  0  0
 20  9  1  0  0  0
  9 10  1  0  0  0
  9 14  2  0  0  0
 10 11  2  0  0  0
 11 12  1  0  0  0
 12 13  2  0  0  0
 13 14  1  0  0  0
 13 17  1  0  0  0
 14 15  1  0  0  0
 15  1  1  0  0  0
 15 16  2  0  0  0
  1  2  2  0  0  0
  2  3  1  0  0  0
  2  7  1  0  0  0
  3  4  2  0  0  0
  3  5  1  0  0  0
  5  6  1  0  0  0
  5  8  1  0  0  0
  6  7  2  0  0  0
  7 21  1  0  0  0
 21 22  1  0  0  0
 21 25  2  0  0  0
 22 23  1  0  0  0
 23 24  2  0  0  0
 24 25  1  0  0  0
 25 26  1  0  0  0
 16 17  1  0  0  0
 17 18  1  0  0  0
M  END
> <minimizedAffinity>
-8.67099

$$$$
