CHEMBL3927140


 38 42  0  0  0  0  0  0  0  0999 V2000
  -15.3173    2.9939  -16.6866 N   0  0  0  0  0  0  0  0  0  0  0  0
  -15.0808    2.1657  -15.5270 C   0  0  0  0  0  0  0  0  0  0  0  0
  -13.9874    2.5677  -14.7696 C   0  0  0  0  0  0  0  0  0  0  0  0
  -13.2467    1.6142  -14.1001 C   0  0  0  0  0  0  0  0  0  0  0  0
  -13.6635    0.3148  -14.0077 C   0  0  0  0  0  0  0  0  0  0  0  0
  -12.7132   -0.4924  -13.5279 N   0  0  0  0  0  0  0  0  0  0  0  0
  -13.1020   -1.7014  -13.1373 C   0  0  0  0  0  0  0  0  0  0  0  0
  -14.4292   -2.0696  -13.1542 C   0  0  0  0  0  0  0  0  0  0  0  0
  -15.3818   -1.3121  -13.8261 N   0  0  0  0  0  0  0  0  0  0  0  0
  -14.9699   -0.0644  -14.3484 C   0  0  0  0  0  0  0  0  0  0  0  0
  -15.6474    0.8894  -15.2171 C   0  0  0  0  0  0  0  0  0  0  0  0
  -14.7482   -3.2352  -12.3145 C   0  0  0  0  0  0  0  0  0  0  0  0
  -15.8166   -3.4456  -11.3970 C   0  0  0  0  0  0  0  0  0  0  0  0
  -15.6486   -4.5355  -10.6339 N   0  0  0  0  0  0  0  0  0  0  0  0
  -14.4649   -5.0200  -11.0433 N   0  0  0  0  0  0  0  0  0  0  0  0
  -14.0726   -6.3756  -10.7329 C   0  0  0  0  0  0  0  0  0  0  0  0
  -13.8088   -4.1676  -11.8891 C   0  0  0  0  0  0  0  0  0  0  0  0
  -13.3171    4.9120  -19.2144 C   0  0  0  0  0  0  0  0  0  0  0  0
  -12.6064    3.8859  -19.8109 C   0  0  0  0  0  0  0  0  0  0  0  0
  -12.9534    2.5574  -19.5431 C   0  0  0  0  0  0  0  0  0  0  0  0
  -13.8982    2.2563  -18.5523 C   0  0  0  0  0  0  0  0  0  0  0  0
  -14.5253    3.2698  -17.8293 C   0  0  0  0  0  0  0  0  0  0  0  0
  -14.3309    4.5887  -18.3129 C   0  0  0  0  0  0  0  0  0  0  0  0
  -13.9148    7.1310  -18.6304 C   0  0  0  0  0  0  0  0  0  0  0  0
  -13.0979    6.2520  -19.3991 O   0  0  0  0  0  0  0  0  0  0  0  0
  -12.3735    1.4766  -20.1550 O   0  0  0  0  0  0  0  0  0  0  0  0
  -13.2739    0.4413  -20.5411 C   0  0  0  0  0  0  0  0  0  0  0  0
  -16.2925    4.0731  -16.3097 C   0  0  0  0  0  0  0  0  0  0  0  0
  -17.5571    3.5170  -15.8207 C   0  0  0  0  0  0  0  0  0  0  0  0
  -18.6125    3.0915  -15.3901 C   0  0  0  0  0  0  0  0  0  0  0  0
  -19.8607    2.6605  -14.8684 C   0  0  0  0  0  0  0  0  0  0  0  0
  -20.1525    1.3026  -14.7645 C   0  0  0  0  0  0  0  0  0  0  0  0
  -21.4286    0.9394  -14.3450 C   0  0  0  0  0  0  0  0  0  0  0  0
  -22.3469    1.9371  -14.0298 C   0  0  0  0  0  0  0  0  0  0  0  0
  -21.9520    3.2592  -14.1391 C   0  0  0  0  0  0  0  0  0  0  0  0
  -20.7266    3.6424  -14.5546 N   0  0  0  0  0  0  0  0  0  0  0  0
  -21.9004   -0.3379  -14.2153 O   0  0  0  0  0  0  0  0  0  0  0  0
  -23.2853   -0.4859  -13.9248 C   0  0  0  0  0  0  0  0  0  0  0  0
 24 25  1  0  0  0
 25 18  1  0  0  0
 18 19  1  0  0  0
 18 23  2  0  0  0
 19 20  2  0  0  0
 20 26  1  0  0  0
 20 21  1  0  0  0
 26 27  1  0  0  0
 21 22  2  0  0  0
 22  1  1  0  0  0
 22 23  1  0  0  0
  1 28  1  0  0  0
  1  2  1  0  0  0
 28 29  1  0  0  0
 29 30  3  0  0  0
 30 31  1  0  0  0
 31 32  1  0  0  0
 31 36  2  0  0  0
 32 33  2  0  0  0
 33 37  1  0  0  0
 33 34  1  0  0  0
 37 38  1  0  0  0
 34 35  2  0  0  0
 35 36  1  0  0  0
  2  3  1  0  0  0
  2 11  2  0  0  0
  3  4  2  0  0  0
  4  5  1  0  0  0
  5  6  1  0  0  0
  5 10  2  0  0  0
  6  7  2  0  0  0
  7  8  1  0  0  0
  8 12  1  0  0  0
  8  9  2  0  0  0
 12 13  1  0  0  0
 12 17  2  0  0  0
 13 14  2  0  0  0
 14 15  1  0  0  0
 15 16  1  0  0  0
 15 17  1  0  0  0
  9 10  1  0  0  0
 10 11  1  0  0  0
M  END
> <minimizedAffinity>
-8.33443

$$$$
