CHEMBL4474922


 33 36  0  0  0  0  0  0  0  0999 V2000
  -26.6844   -9.2505   -4.7032 C   0  0  0  0  0  0  0  0  0  0  0  0
  -27.4595   -9.4540   -3.5795 C   0  0  0  0  0  0  0  0  0  0  0  0
  -28.8020   -9.6795   -3.7908 C   0  0  0  0  0  0  0  0  0  0  0  0
  -29.3715   -9.7225   -5.0088 N   0  0  0  0  0  0  0  0  0  0  0  0
  -28.5397   -9.5536   -6.0436 C   0  0  0  0  0  0  0  0  0  0  0  0
  -27.2262   -9.3147   -5.9319 N   0  0  0  0  0  0  0  0  0  0  0  0
  -25.3241   -8.8903   -4.5350 N   0  0  0  0  0  0  0  0  0  0  0  0
  -25.2133   -8.1301   -3.8733 H   0  0  0  0  0  0  0  0  0  0  0  0
  -22.3763  -10.7770   -5.8490 C   0  0  0  0  0  0  0  0  0  0  0  0
  -21.9851  -11.4941   -4.7133 C   0  0  0  0  0  0  0  0  0  0  0  0
  -22.7012  -11.3606   -3.5299 C   0  0  0  0  0  0  0  0  0  0  0  0
  -23.8024  -10.5076   -3.4762 C   0  0  0  0  0  0  0  0  0  0  0  0
  -24.2035   -9.7524   -4.5872 C   0  0  0  0  0  0  0  0  0  0  0  0
  -23.4938   -9.9231   -5.7850 C   0  0  0  0  0  0  0  0  0  0  0  0
  -21.8904  -12.0878   -8.0206 C   0  0  0  0  0  0  0  0  0  0  0  0
  -21.6271  -10.8973   -7.1333 C   0  0  0  0  0  0  0  0  0  0  0  0
  -20.8125  -10.0314   -7.4495 O   0  0  0  0  0  0  0  0  0  0  0  0
  -29.1622   -9.6682   -7.7004 S   0  0  0  0  0  0  0  0  0  0  0  0
  -29.0945   -7.9255   -8.1933 C   0  0  0  0  0  0  0  0  0  0  0  0
  -30.1830   -7.1502   -7.4744 C   0  0  0  0  0  0  0  0  0  0  0  0
  -31.2955   -7.6452   -7.2765 O   0  0  0  0  0  0  0  0  0  0  0  0
  -29.9054   -5.7751   -6.9545 C   0  0  0  0  0  0  0  0  0  0  0  0
  -30.2505   -5.3529   -5.6688 C   0  0  0  0  0  0  0  0  0  0  0  0
  -29.9468   -4.0460   -5.2449 C   0  0  0  0  0  0  0  0  0  0  0  0
  -29.2890   -3.1256   -6.0832 C   0  0  0  0  0  0  0  0  0  0  0  0
  -28.9448   -3.5786   -7.3690 C   0  0  0  0  0  0  0  0  0  0  0  0
  -29.2485   -4.8760   -7.8001 C   0  0  0  0  0  0  0  0  0  0  0  0
  -28.9579   -1.7445   -5.6421 C   0  0  0  0  0  0  0  0  0  0  0  0
  -27.6725   -1.3931   -5.1884 C   0  0  0  0  0  0  0  0  0  0  0  0
  -27.3627   -0.0815   -4.8060 C   0  0  0  0  0  0  0  0  0  0  0  0
  -28.3293    0.9165   -4.8784 C   0  0  0  0  0  0  0  0  0  0  0  0
  -29.6091    0.5999   -5.3173 C   0  0  0  0  0  0  0  0  0  0  0  0
  -29.9190   -0.7144   -5.6826 C   0  0  0  0  0  0  0  0  0  0  0  0
 15 16  1  0  0  0
 16 17  2  0  0  0
 16  9  1  0  0  0
  9 10  1  0  0  0
  9 14  2  0  0  0
 10 11  2  0  0  0
 11 12  1  0  0  0
 12 13  2  0  0  0
 13  7  1  0  0  0
 13 14  1  0  0  0
  7  1  1  0  0  0
  7  8  1  0  0  0
  1  2  1  0  0  0
  1  6  2  0  0  0
  2  3  2  0  0  0
  3  4  1  0  0  0
  4  5  2  0  0  0
  5 18  1  0  0  0
  5  6  1  0  0  0
 18 19  1  0  0  0
 19 20  1  0  0  0
 20 21  2  0  0  0
 20 22  1  0  0  0
 22 23  1  0  0  0
 22 27  2  0  0  0
 23 24  2  0  0  0
 24 25  1  0  0  0
 25 28  1  0  0  0
 25 26  2  0  0  0
 28 29  1  0  0  0
 28 33  2  0  0  0
 29 30  2  0  0  0
 30 31  1  0  0  0
 31 32  2  0  0  0
 32 33  1  0  0  0
 26 27  1  0  0  0
M  END
> <minimizedAffinity>
-9.64787

$$$$
