CHEMBL2023477


 35 38  0  0  0  0  0  0  0  0999 V2000
  -14.0208   -2.6154  -12.6390 C   0  0  0  0  0  0  0  0  0  0  0  0
  -13.5222   -3.8443  -13.0381 C   0  0  0  0  0  0  0  0  0  0  0  0
  -14.1567   -5.0133  -12.8432 C   0  0  0  0  0  0  0  0  0  0  0  0
  -15.5290   -4.8784  -12.4053 C   0  0  0  0  0  0  0  0  0  0  0  0
  -16.0841   -3.5499  -12.0638 C   0  0  0  0  0  0  0  0  0  0  0  0
  -15.3606   -2.3657  -12.2978 C   0  0  0  0  0  0  0  0  0  0  0  0
  -12.2738   -1.4864  -13.7163 C   0  0  0  0  0  0  0  0  0  0  0  0
  -12.9686   -1.7470  -12.5020 O   0  0  0  0  0  0  0  0  0  0  0  0
  -13.3272   -6.0443  -13.2326 O   0  0  0  0  0  0  0  0  0  0  0  0
  -13.2932   -7.5623  -12.9703 C   0  0  0  0  0  0  0  0  0  0  0  0
  -12.5114   -8.9546  -12.2552 C   0  0  0  0  0  0  0  0  0  0  0  0
  -12.2991  -10.2516  -12.8179 C   0  0  0  0  0  0  0  0  0  0  0  0
  -12.7093   -9.4574  -13.7154 N   0  0  0  0  0  0  0  0  0  0  0  0
  -13.0001   -8.9623  -14.8488 C   0  0  0  0  0  0  0  0  0  0  0  0
  -12.8852   -9.6580  -15.9811 C   0  0  0  0  0  0  0  0  0  0  0  0
  -13.4256   -9.2444  -17.0983 C   0  0  0  0  0  0  0  0  0  0  0  0
  -13.8421   -7.8752  -17.0421 C   0  0  0  0  0  0  0  0  0  0  0  0
  -13.8816   -7.1346  -15.7870 C   0  0  0  0  0  0  0  0  0  0  0  0
  -13.4714   -7.7645  -14.5092 C   0  0  0  0  0  0  0  0  0  0  0  0
  -13.4403  -10.0521  -18.1029 O   0  0  0  0  0  0  0  0  0  0  0  0
  -14.0198  -11.3264  -17.8259 C   0  0  0  0  0  0  0  0  0  0  0  0
  -14.2543   -7.2436  -18.1928 O   0  0  0  0  0  0  0  0  0  0  0  0
  -13.2071   -6.5400  -18.8822 C   0  0  0  0  0  0  0  0  0  0  0  0
  -15.9351   -0.9377  -12.1551 C   0  0  0  0  0  0  0  0  0  0  0  0
  -15.6112    0.1545  -13.2419 C   0  0  0  0  0  0  0  0  0  0  0  0
  -14.7977    0.9940  -12.8397 O   0  0  0  0  0  0  0  0  0  0  0  0
  -15.9937    0.0871  -14.5804 N   0  0  0  0  0  0  0  0  0  0  0  0
  -16.5283   -0.7159  -14.8929 H   0  0  0  0  0  0  0  0  0  0  0  0
  -15.6176    1.1407  -15.4810 C   0  0  0  0  0  0  0  0  0  0  0  0
  -14.4477    1.1190  -16.1422 N   0  0  0  0  0  0  0  0  0  0  0  0
  -14.3608    2.2320  -16.9262 O   0  0  0  0  0  0  0  0  0  0  0  0
  -15.4650    2.9987  -16.7739 C   0  0  0  0  0  0  0  0  0  0  0  0
  -15.4561    4.2595  -17.5929 C   0  0  0  0  0  0  0  0  0  0  0  0
  -16.3043    2.3668  -15.8447 C   0  0  0  0  0  0  0  0  0  0  0  0
  -17.6137    2.8776  -15.3653 C   0  0  0  0  0  0  0  0  0  0  0  0
  7  8  1  0  0  0
  8  1  1  0  0  0
  1  2  1  0  0  0
  1  6  2  0  0  0
  2  3  2  0  0  0
  3  9  1  0  0  0
  3  4  1  0  0  0
  9 10  1  0  0  0
 10 11  1  0  0  0
 10 19  2  0  0  0
 11 12  2  0  0  0
 12 13  1  0  0  0
 13 14  2  0  0  0
 14 15  1  0  0  0
 14 19  1  0  0  0
 15 16  2  0  0  0
 16 20  1  0  0  0
 16 17  1  0  0  0
 20 21  1  0  0  0
 17 22  1  0  0  0
 17 18  2  0  0  0
 22 23  1  0  0  0
 18 19  1  0  0  0
  4  5  2  0  0  0
  5  6  1  0  0  0
  6 24  1  0  0  0
 24 25  1  0  0  0
 25 26  2  0  0  0
 25 27  1  0  0  0
 27 29  1  0  0  0
 27 28  1  0  0  0
 29 30  2  0  0  0
 29 34  1  0  0  0
 30 31  1  0  0  0
 31 32  1  0  0  0
 32 33  1  0  0  0
 32 34  2  0  0  0
 34 35  1  0  0  0
M  END
> <minimizedAffinity>
-7.65549

$$$$
