CHEMBL3937667


 38 41  0  0  0  0  0  0  0  0999 V2000
  -28.5554  -11.3984  -10.7604 C   0  0  0  0  0  0  0  0  0  0  0  0
  -28.8948  -10.9340   -9.3744 C   0  0  0  0  0  0  0  0  0  0  0  0
  -29.4441   -9.6613   -9.1784 C   0  0  0  0  0  0  0  0  0  0  0  0
  -29.7687   -9.1936   -7.9000 C   0  0  0  0  0  0  0  0  0  0  0  0
  -29.4839  -10.0004   -6.7944 C   0  0  0  0  0  0  0  0  0  0  0  0
  -28.9668  -11.2923   -6.9753 C   0  0  0  0  0  0  0  0  0  0  0  0
  -28.6713  -11.7529   -8.2634 C   0  0  0  0  0  0  0  0  0  0  0  0
  -30.3474   -7.9180   -7.6873 N   0  0  0  0  0  0  0  0  0  0  0  0
  -29.6329   -6.7321   -7.6895 C   0  0  0  0  0  0  0  0  0  0  0  0
  -28.4540   -6.6257   -8.0106 O   0  0  0  0  0  0  0  0  0  0  0  0
  -30.3991   -5.6611   -7.2383 N   0  0  0  0  0  0  0  0  0  0  0  0
  -31.3426   -7.8321   -7.8353 H   0  0  0  0  0  0  0  0  0  0  0  0
  -31.0462   -5.9172   -6.5056 H   0  0  0  0  0  0  0  0  0  0  0  0
  -29.7952   -4.3850   -7.1326 C   0  0  0  0  0  0  0  0  0  0  0  0
  -29.0138   -3.8703   -8.1687 C   0  0  0  0  0  0  0  0  0  0  0  0
  -28.3223   -2.6720   -7.9990 C   0  0  0  0  0  0  0  0  0  0  0  0
  -28.3916   -1.9861   -6.7838 C   0  0  0  0  0  0  0  0  0  0  0  0
  -27.4811   -0.5243   -6.6598 Cl  0  0  0  0  0  0  0  0  0  0  0  0
  -29.1749   -2.4842   -5.7306 C   0  0  0  0  0  0  0  0  0  0  0  0
  -29.9156   -3.6697   -5.9405 C   0  0  0  0  0  0  0  0  0  0  0  0
  -29.2287   -1.8326   -4.3666 C   0  0  0  0  0  0  0  0  0  0  0  0
  -30.0717   -2.6357   -3.3907 C   0  0  0  0  0  0  0  0  0  0  0  0
  -27.9794   -1.7259   -3.8112 F   0  0  0  0  0  0  0  0  0  0  0  0
  -29.6958   -0.5522   -4.3873 F   0  0  0  0  0  0  0  0  0  0  0  0
  -28.6176  -12.1334   -5.9367 O   0  0  0  0  0  0  0  0  0  0  0  0
  -27.5452  -11.7920   -5.1191 C   0  0  0  0  0  0  0  0  0  0  0  0
  -26.2830  -11.9448   -5.6621 C   0  0  0  0  0  0  0  0  0  0  0  0
  -25.2278  -11.6293   -4.8316 C   0  0  0  0  0  0  0  0  0  0  0  0
  -25.4324  -11.1940   -3.5821 N   0  0  0  0  0  0  0  0  0  0  0  0
  -26.6873  -11.1007   -3.1431 C   0  0  0  0  0  0  0  0  0  0  0  0
  -27.7745  -11.3899   -3.8564 N   0  0  0  0  0  0  0  0  0  0  0  0
  -23.9161  -11.7743   -5.3074 N   0  0  0  0  0  0  0  0  0  0  0  0
  -23.1085  -10.7018   -5.6499 C   0  0  0  0  0  0  0  0  0  0  0  0
  -23.4096   -9.5167   -5.6362 O   0  0  0  0  0  0  0  0  0  0  0  0
  -23.5366  -12.7055   -5.3947 H   0  0  0  0  0  0  0  0  0  0  0  0
  -21.7320  -11.0831   -6.1012 C   0  0  0  0  0  0  0  0  0  0  0  0
  -21.1144  -10.3594   -7.2824 C   0  0  0  0  0  0  0  0  0  0  0  0
  -21.5646  -11.7827   -7.4321 C   0  0  0  0  0  0  0  0  0  0  0  0
  1  2  1  0  0  0
  2  3  1  0  0  0
  2  7  2  0  0  0
  3  4  2  0  0  0
  4  8  1  0  0  0
  4  5  1  0  0  0
  8  9  1  0  0  0
  8 12  1  0  0  0
  9 10  2  0  0  0
  9 11  1  0  0  0
 11 14  1  0  0  0
 11 13  1  0  0  0
 14 15  1  0  0  0
 14 20  2  0  0  0
 15 16  2  0  0  0
 16 17  1  0  0  0
 17 18  1  0  0  0
 17 19  2  0  0  0
 19 21  1  0  0  0
 19 20  1  0  0  0
 21 22  1  0  0  0
 21 23  1  0  0  0
 21 24  1  0  0  0
  5  6  2  0  0  0
  6 25  1  0  0  0
  6  7  1  0  0  0
 25 26  1  0  0  0
 26 27  1  0  0  0
 26 31  2  0  0  0
 27 28  2  0  0  0
 28 32  1  0  0  0
 28 29  1  0  0  0
 32 33  1  0  0  0
 32 35  1  0  0  0
 33 34  2  0  0  0
 33 36  1  0  0  0
 36 37  1  0  0  0
 36 38  1  0  0  0
 37 38  1  0  0  0
 29 30  2  0  0  0
 30 31  1  0  0  0
M  END
> <minimizedAffinity>
-8.84474

$$$$
