CHEMBL3628797


 31 34  0  0  0  0  0  0  0  0999 V2000
  -25.3170   -1.8616  -11.8927 C   0  0  0  0  0  0  0  0  0  0  0  0
  -25.5727   -1.5668  -13.2327 C   0  0  0  0  0  0  0  0  0  0  0  0
  -24.6218   -0.9123  -14.0294 C   0  0  0  0  0  0  0  0  0  0  0  0
  -23.4056   -0.4883  -13.5009 C   0  0  0  0  0  0  0  0  0  0  0  0
  -23.1703   -0.7498  -12.1404 C   0  0  0  0  0  0  0  0  0  0  0  0
  -24.1149   -1.4156  -11.3415 C   0  0  0  0  0  0  0  0  0  0  0  0
  -26.4449   -1.1304   -9.3261 O   0  0  0  0  0  0  0  0  0  0  0  0
  -26.7073   -2.2046   -9.8527 C   0  0  0  0  0  0  0  0  0  0  0  0
  -26.1908   -2.6208  -11.0730 N   0  0  0  0  0  0  0  0  0  0  0  0
  -27.5807   -3.1382   -9.3158 N   0  0  0  0  0  0  0  0  0  0  0  0
  -26.6222   -3.4229  -11.5036 H   0  0  0  0  0  0  0  0  0  0  0  0
  -27.6238   -4.0397   -9.7634 H   0  0  0  0  0  0  0  0  0  0  0  0
  -28.3633   -2.9747   -8.1426 C   0  0  0  0  0  0  0  0  0  0  0  0
  -29.4012   -3.8362   -7.7713 C   0  0  0  0  0  0  0  0  0  0  0  0
  -30.1344   -3.6280   -6.5976 C   0  0  0  0  0  0  0  0  0  0  0  0
  -29.8346   -2.5519   -5.7708 C   0  0  0  0  0  0  0  0  0  0  0  0
  -28.8007   -1.6907   -6.1291 C   0  0  0  0  0  0  0  0  0  0  0  0
  -28.3804   -0.2327   -4.9973 Br  0  0  0  0  0  0  0  0  0  0  0  0
  -28.0675   -1.8920   -7.3066 C   0  0  0  0  0  0  0  0  0  0  0  0
  -22.3460    0.0090  -14.2819 N   0  0  0  0  0  0  0  0  0  0  0  0
  -21.7180   -0.7106  -14.6122 H   0  0  0  0  0  0  0  0  0  0  0  0
  -21.7309    1.2852  -14.3384 C   0  0  0  0  0  0  0  0  0  0  0  0
  -22.4532    2.3945  -14.1007 N   0  0  0  0  0  0  0  0  0  0  0  0
  -21.8100    3.5631  -14.1992 C   0  0  0  0  0  0  0  0  0  0  0  0
  -20.5235    3.7392  -14.5234 N   0  0  0  0  0  0  0  0  0  0  0  0
  -19.8177    2.6363  -14.7848 C   0  0  0  0  0  0  0  0  0  0  0  0
  -18.4937    2.7710  -15.1896 C   0  0  0  0  0  0  0  0  0  0  0  0
  -17.7022    1.6662  -15.5151 C   0  0  0  0  0  0  0  0  0  0  0  0
  -18.2292    0.3889  -15.4116 C   0  0  0  0  0  0  0  0  0  0  0  0
  -19.5496    0.2267  -14.9978 C   0  0  0  0  0  0  0  0  0  0  0  0
  -20.3650    1.3488  -14.6929 C   0  0  0  0  0  0  0  0  0  0  0  0
  7  8  2  0  0  0
  8  9  1  0  0  0
  8 10  1  0  0  0
  9  1  1  0  0  0
  9 11  1  0  0  0
  1  2  1  0  0  0
  1  6  2  0  0  0
  2  3  2  0  0  0
  3  4  1  0  0  0
  4 20  1  0  0  0
  4  5  2  0  0  0
 20 22  1  0  0  0
 20 21  1  0  0  0
 22 23  1  0  0  0
 22 31  2  0  0  0
 23 24  2  0  0  0
 24 25  1  0  0  0
 25 26  2  0  0  0
 26 27  1  0  0  0
 26 31  1  0  0  0
 27 28  2  0  0  0
 28 29  1  0  0  0
 29 30  2  0  0  0
 30 31  1  0  0  0
  5  6  1  0  0  0
 10 13  1  0  0  0
 10 12  1  0  0  0
 13 14  1  0  0  0
 13 19  2  0  0  0
 14 15  2  0  0  0
 15 16  1  0  0  0
 16 17  2  0  0  0
 17 18  1  0  0  0
 17 19  1  0  0  0
M  END
> <minimizedAffinity>
-11.59487

$$$$
