CHEMBL2386994


 39 43  0  0  0  0  0  0  0  0999 V2000
  -18.2071    1.9410  -15.1849 C   0  0  0  0  0  0  0  0  0  0  0  0
  -18.6485    3.2486  -14.9475 C   0  0  0  0  0  0  0  0  0  0  0  0
  -19.9539    3.4742  -14.5445 C   0  0  0  0  0  0  0  0  0  0  0  0
  -20.8312    2.4008  -14.4118 C   0  0  0  0  0  0  0  0  0  0  0  0
  -20.4371    1.0872  -14.6978 C   0  0  0  0  0  0  0  0  0  0  0  0
  -19.1063    0.8624  -15.0840 C   0  0  0  0  0  0  0  0  0  0  0  0
  -21.3282   -0.0155  -14.6028 N   0  0  0  0  0  0  0  0  0  0  0  0
  -22.5711    0.0058  -13.9906 C   0  0  0  0  0  0  0  0  0  0  0  0
  -23.0926    0.9906  -13.4782 O   0  0  0  0  0  0  0  0  0  0  0  0
  -23.1597   -1.2532  -13.9376 N   0  0  0  0  0  0  0  0  0  0  0  0
  -21.0994   -0.8440  -15.1337 H   0  0  0  0  0  0  0  0  0  0  0  0
  -22.5054   -1.9951  -13.7217 H   0  0  0  0  0  0  0  0  0  0  0  0
  -24.4189   -1.3628  -13.2747 C   0  0  0  0  0  0  0  0  0  0  0  0
  -24.5280   -1.5311  -11.8887 C   0  0  0  0  0  0  0  0  0  0  0  0
  -23.4507   -1.4120  -11.0978 F   0  0  0  0  0  0  0  0  0  0  0  0
  -25.7574   -1.8090  -11.2915 C   0  0  0  0  0  0  0  0  0  0  0  0
  -26.9036   -1.9112  -12.0790 C   0  0  0  0  0  0  0  0  0  0  0  0
  -26.8185   -1.6925  -13.4553 C   0  0  0  0  0  0  0  0  0  0  0  0
  -25.5847   -1.4021  -14.0380 C   0  0  0  0  0  0  0  0  0  0  0  0
  -25.5139   -1.2378  -15.3683 F   0  0  0  0  0  0  0  0  0  0  0  0
  -16.7954    1.6965  -15.6015 C   0  0  0  0  0  0  0  0  0  0  0  0
  -16.3693    2.2578  -16.6088 O   0  0  0  0  0  0  0  0  0  0  0  0
  -13.9382    3.2791  -15.1922 N   0  0  0  0  0  0  0  0  0  0  0  0
  -13.6548    2.0801  -14.5576 C   0  0  0  0  0  0  0  0  0  0  0  0
  -12.4191    1.9268  -14.0413 N   0  0  0  0  0  0  0  0  0  0  0  0
  -12.1470    0.7976  -13.3616 C   0  0  0  0  0  0  0  0  0  0  0  0
  -12.9636   -0.2389  -13.1124 N   0  0  0  0  0  0  0  0  0  0  0  0
  -14.1775   -0.0579  -13.6604 C   0  0  0  0  0  0  0  0  0  0  0  0
  -14.5899    1.0435  -14.4020 C   0  0  0  0  0  0  0  0  0  0  0  0
  -15.9491    0.8134  -14.7935 C   0  0  0  0  0  0  0  0  0  0  0  0
  -16.2998   -0.4249  -14.2719 C   0  0  0  0  0  0  0  0  0  0  0  0
  -15.2341   -0.9296  -13.5640 N   0  0  0  0  0  0  0  0  0  0  0  0
  -13.0997    3.7732  -15.4664 H   0  0  0  0  0  0  0  0  0  0  0  0
  -14.6878    3.2295  -15.8823 H   0  0  0  0  0  0  0  0  0  0  0  0
  -15.2210   -2.1800  -12.8269 C   0  0  0  0  0  0  0  0  0  0  0  0
  -16.0485   -3.2938  -13.4713 C   0  0  0  0  0  0  0  0  0  0  0  0
  -16.3475   -4.2755  -12.3407 C   0  0  0  0  0  0  0  0  0  0  0  0
  -16.0609   -3.5396  -11.0328 C   0  0  0  0  0  0  0  0  0  0  0  0
  -15.8028   -2.0870  -11.4146 C   0  0  0  0  0  0  0  0  0  0  0  0
 23 24  1  0  0  0
 23 33  1  0  0  0
 23 34  1  0  0  0
 24 25  1  0  0  0
 24 29  2  0  0  0
 25 26  2  0  0  0
 26 27  1  0  0  0
 27 28  2  0  0  0
 28 29  1  0  0  0
 28 32  1  0  0  0
 29 30  1  0  0  0
 30 21  1  0  0  0
 30 31  2  0  0  0
 21 22  2  0  0  0
 21  1  1  0  0  0
  1  2  1  0  0  0
  1  6  2  0  0  0
  2  3  2  0  0  0
  3  4  1  0  0  0
  4  5  2  0  0  0
  5  7  1  0  0  0
  5  6  1  0  0  0
  7  8  1  0  0  0
  7 11  1  0  0  0
  8  9  2  0  0  0
  8 10  1  0  0  0
 10 13  1  0  0  0
 10 12  1  0  0  0
 13 14  1  0  0  0
 13 19  2  0  0  0
 14 15  1  0  0  0
 14 16  2  0  0  0
 16 17  1  0  0  0
 17 18  2  0  0  0
 18 19  1  0  0  0
 19 20  1  0  0  0
 31 32  1  0  0  0
 32 35  1  0  0  0
 35 36  1  0  0  0
 35 39  1  0  0  0
 36 37  1  0  0  0
 37 38  1  0  0  0
 38 39  1  0  0  0
M  END
> <minimizedAffinity>
-11.96055

$$$$
