CHEMBL1084338


 37 43  0  0  0  0  0  0  0  0999 V2000
  -12.4609   -0.5096  -15.7945 N   0  0  0  0  0  0  0  0  0  0  0  0
  -13.0541   -1.6132  -15.1365 C   0  0  0  0  0  0  0  0  0  0  0  0
  -12.7783   -2.9920  -15.1805 C   0  0  0  0  0  0  0  0  0  0  0  0
  -13.5732   -3.8680  -14.4098 C   0  0  0  0  0  0  0  0  0  0  0  0
  -14.6103   -3.4110  -13.5877 C   0  0  0  0  0  0  0  0  0  0  0  0
  -14.8949   -2.0391  -13.6027 C   0  0  0  0  0  0  0  0  0  0  0  0
  -14.1445   -1.1479  -14.3913 C   0  0  0  0  0  0  0  0  0  0  0  0
  -14.2258    0.1710  -14.7787 C   0  0  0  0  0  0  0  0  0  0  0  0
  -15.4332    0.8860  -14.6947 C   0  0  0  0  0  0  0  0  0  0  0  0
  -15.5883    1.9226  -15.6474 C   0  0  0  0  0  0  0  0  0  0  0  0
  -14.5612    2.3194  -16.5210 C   0  0  0  0  0  0  0  0  0  0  0  0
  -13.2508    1.9695  -16.0528 C   0  0  0  0  0  0  0  0  0  0  0  0
  -13.1911    0.6563  -15.5330 C   0  0  0  0  0  0  0  0  0  0  0  0
  -12.5201    3.2167  -15.3910 C   0  0  0  0  0  0  0  0  0  0  0  0
  -13.4231    4.5159  -15.2436 C   0  0  0  0  0  0  0  0  0  0  0  0
  -14.0941    4.7221  -16.5554 C   0  0  0  0  0  0  0  0  0  0  0  0
  -13.9505    5.7502  -17.3916 N   0  0  0  0  0  0  0  0  0  0  0  0
  -14.3654    5.2266  -18.5734 N   0  0  0  0  0  0  0  0  0  0  0  0
  -14.1958    5.9827  -19.7906 C   0  0  0  0  0  0  0  0  0  0  0  0
  -14.6882    3.8936  -18.5026 C   0  0  0  0  0  0  0  0  0  0  0  0
  -14.6721    3.5974  -17.1667 C   0  0  0  0  0  0  0  0  0  0  0  0
  -16.8962    2.4887  -15.4448 C   0  0  0  0  0  0  0  0  0  0  0  0
  -17.5000    3.4099  -15.9809 O   0  0  0  0  0  0  0  0  0  0  0  0
  -17.4206    1.7930  -14.3588 N   0  0  0  0  0  0  0  0  0  0  0  0
  -16.6162    0.7008  -13.8593 C   0  0  0  0  0  0  0  0  0  0  0  0
  -18.3081    2.0651  -13.9747 H   0  0  0  0  0  0  0  0  0  0  0  0
  -15.3754   -4.2744  -12.5883 C   0  0  0  0  0  0  0  0  0  0  0  0
  -16.2833   -3.5749  -11.5719 C   0  0  0  0  0  0  0  0  0  0  0  0
  -15.5052   -3.0414  -10.3772 C   0  0  0  0  0  0  0  0  0  0  0  0
  -14.6826   -4.1644   -9.7663 C   0  0  0  0  0  0  0  0  0  0  0  0
  -13.8068   -4.8230  -10.8224 C   0  0  0  0  0  0  0  0  0  0  0  0
  -14.5529   -5.2682  -11.9517 O   0  0  0  0  0  0  0  0  0  0  0  0
  -11.3540   -0.6532  -16.7493 C   0  0  0  0  0  0  0  0  0  0  0  0
  -11.8162   -0.5424  -18.2122 C   0  0  0  0  0  0  0  0  0  0  0  0
  -13.9763    0.1633  -19.4010 C   0  0  0  0  0  0  0  0  0  0  0  0
  -13.2979   -0.8783  -18.5141 C   0  0  0  0  0  0  0  0  0  0  0  0
  -13.5055   -2.2797  -19.0965 C   0  0  0  0  0  0  0  0  0  0  0  0
 35 36  1  0  0  0
 36 37  1  0  0  0
 36 34  1  0  0  0
 34 33  1  0  0  0
 33  1  1  0  0  0
  1  2  1  0  0  0
  1 13  1  0  0  0
  2  3  1  0  0  0
  2  7  2  0  0  0
  3  4  2  0  0  0
  4  5  1  0  0  0
  5 27  1  0  0  0
  5  6  2  0  0  0
 27 28  1  0  0  0
 27 32  1  0  0  0
 28 29  1  0  0  0
 29 30  1  0  0  0
 30 31  1  0  0  0
 31 32  1  0  0  0
  6  7  1  0  0  0
  7  8  1  0  0  0
  8  9  1  0  0  0
  8 13  2  0  0  0
  9 10  2  0  0  0
  9 25  1  0  0  0
 10 11  1  0  0  0
 10 22  1  0  0  0
 11 12  2  0  0  0
 11 21  1  0  0  0
 12 13  1  0  0  0
 12 14  1  0  0  0
 14 15  1  0  0  0
 15 16  1  0  0  0
 16 17  2  0  0  0
 16 21  1  0  0  0
 17 18  1  0  0  0
 18 19  1  0  0  0
 18 20  1  0  0  0
 20 21  2  0  0  0
 22 23  2  0  0  0
 22 24  1  0  0  0
 24 25  1  0  0  0
 24 26  1  0  0  0
M  END
> <minimizedAffinity>
-7.66605

$$$$
