CHEMBL304113


 31 34  0  0  0  0  0  0  0  0999 V2000
  -29.9388   -6.4729   -7.0035 C   0  0  0  0  0  0  0  0  0  0  0  0
  -29.6868   -5.2857   -7.7066 C   0  0  0  0  0  0  0  0  0  0  0  0
  -29.7955   -4.0467   -7.0782 C   0  0  0  0  0  0  0  0  0  0  0  0
  -30.2621   -3.9747   -5.7666 C   0  0  0  0  0  0  0  0  0  0  0  0
  -30.4388   -5.1462   -5.0341 C   0  0  0  0  0  0  0  0  0  0  0  0
  -30.2446   -6.3883   -5.6433 C   0  0  0  0  0  0  0  0  0  0  0  0
  -29.0597   -9.3260   -9.0591 N   0  0  0  0  0  0  0  0  0  0  0  0
  -28.8175   -8.1009   -8.4951 C   0  0  0  0  0  0  0  0  0  0  0  0
  -29.8912   -7.7574   -7.6930 C   0  0  0  0  0  0  0  0  0  0  0  0
  -30.8249   -8.8502   -7.7598 C   0  0  0  0  0  0  0  0  0  0  0  0
  -32.0970   -9.1652   -7.2410 C   0  0  0  0  0  0  0  0  0  0  0  0
  -32.8695   -8.3229   -6.4500 N   0  0  0  0  0  0  0  0  0  0  0  0
  -32.6532  -10.3558   -7.5378 N   0  0  0  0  0  0  0  0  0  0  0  0
  -31.9777  -11.1954   -8.3417 C   0  0  0  0  0  0  0  0  0  0  0  0
  -30.7894  -10.9999   -8.9281 N   0  0  0  0  0  0  0  0  0  0  0  0
  -30.2578   -9.8100   -8.5984 C   0  0  0  0  0  0  0  0  0  0  0  0
  -32.7756   -7.3439   -6.6892 H   0  0  0  0  0  0  0  0  0  0  0  0
  -33.8215   -8.6691   -6.4034 H   0  0  0  0  0  0  0  0  0  0  0  0
  -28.9058  -10.2008  -11.3612 C   0  0  0  0  0  0  0  0  0  0  0  0
  -28.1819   -9.9776  -10.0298 C   0  0  0  0  0  0  0  0  0  0  0  0
  -26.8907   -9.1834  -10.2349 C   0  0  0  0  0  0  0  0  0  0  0  0
  -30.5452   -2.8003   -5.1102 O   0  0  0  0  0  0  0  0  0  0  0  0
  -29.6679   -1.7417   -5.2012 C   0  0  0  0  0  0  0  0  0  0  0  0
  -29.9440   -0.5676   -5.9147 C   0  0  0  0  0  0  0  0  0  0  0  0
  -28.9670    0.4207   -6.0647 C   0  0  0  0  0  0  0  0  0  0  0  0
  -27.7231    0.2786   -5.4496 C   0  0  0  0  0  0  0  0  0  0  0  0
  -27.4622   -0.8402   -4.6609 C   0  0  0  0  0  0  0  0  0  0  0  0
  -28.4438   -1.8332   -4.5364 C   0  0  0  0  0  0  0  0  0  0  0  0
  -28.1592   -2.9757   -3.6887 N   0  0  0  0  0  0  0  0  0  0  0  0
  -28.7188   -3.0182   -2.5813 O   0  0  0  0  0  0  0  0  0  0  0  0
  -27.3368   -3.7946   -4.1103 O   0  0  0  0  0  0  0  0  0  0  0  0
 19 20  1  0  0  0
 20 21  1  0  0  0
 20  7  1  0  0  0
  7  8  1  0  0  0
  7 16  1  0  0  0
  8  9  2  0  0  0
  9  1  1  0  0  0
  9 10  1  0  0  0
  1  2  1  0  0  0
  1  6  2  0  0  0
  2  3  2  0  0  0
  3  4  1  0  0  0
  4 22  1  0  0  0
  4  5  2  0  0  0
 22 23  1  0  0  0
 23 24  1  0  0  0
 23 28  2  0  0  0
 24 25  2  0  0  0
 25 26  1  0  0  0
 26 27  2  0  0  0
 27 28  1  0  0  0
 28 29  1  0  0  0
 29 30  2  0  0  0
 29 31  1  0  0  0
  5  6  1  0  0  0
 10 11  1  0  0  0
 10 16  2  0  0  0
 11 12  1  0  0  0
 11 13  2  0  0  0
 12 17  1  0  0  0
 12 18  1  0  0  0
 13 14  1  0  0  0
 14 15  2  0  0  0
 15 16  1  0  0  0
M  CHG 1  29   1
M  CHG 1  31  -1
M  END
> <minimizedAffinity>
-9.40510

$$$$
