CHEMBL2031905


 42 46  0  0  0  0  0  0  0  0999 V2000
  -24.7100   -1.5542  -11.0177 C   0  0  0  0  0  0  0  0  0  0  0  0
  -23.9410   -2.2393  -10.3517 O   0  0  0  0  0  0  0  0  0  0  0  0
  -26.0394   -1.3118  -10.7100 N   0  0  0  0  0  0  0  0  0  0  0  0
  -26.5763   -0.7647  -11.3877 H   0  0  0  0  0  0  0  0  0  0  0  0
  -24.7794   -1.0635  -13.5423 C   0  0  0  0  0  0  0  0  0  0  0  0
  -24.2631   -0.9553  -12.2969 C   0  0  0  0  0  0  0  0  0  0  0  0
  -23.0607   -0.1024  -12.4468 C   0  0  0  0  0  0  0  0  0  0  0  0
  -22.3929    0.2789  -11.4925 O   0  0  0  0  0  0  0  0  0  0  0  0
  -22.9220    0.1858  -13.7990 N   0  0  0  0  0  0  0  0  0  0  0  0
  -24.0865   -0.2443  -14.4721 N   0  0  0  0  0  0  0  0  0  0  0  0
  -23.9272   -0.6448  -15.8730 C   0  0  0  0  0  0  0  0  0  0  0  0
  -22.0178    1.1543  -14.2741 C   0  0  0  0  0  0  0  0  0  0  0  0
  -20.7905    0.7051  -14.7849 C   0  0  0  0  0  0  0  0  0  0  0  0
  -19.8451    1.6051  -15.2729 C   0  0  0  0  0  0  0  0  0  0  0  0
  -20.1023    2.9711  -15.2165 C   0  0  0  0  0  0  0  0  0  0  0  0
  -21.3107    3.4321  -14.6893 C   0  0  0  0  0  0  0  0  0  0  0  0
  -22.2791    2.5263  -14.2371 C   0  0  0  0  0  0  0  0  0  0  0  0
  -25.9729   -1.9229  -13.9437 C   0  0  0  0  0  0  0  0  0  0  0  0
  -27.2960   -1.2481  -13.9330 N   0  0  0  0  0  0  0  0  0  0  0  0
  -27.6787   -0.9536  -12.5427 C   0  0  0  0  0  0  0  0  0  0  0  0
  -28.9749   -3.0787  -13.6223 C   0  0  0  0  0  0  0  0  0  0  0  0
  -28.3363   -2.0729  -14.5809 C   0  0  0  0  0  0  0  0  0  0  0  0
  -26.7605   -1.8142   -9.6076 C   0  0  0  0  0  0  0  0  0  0  0  0
  -27.1441   -3.1534   -9.4842 C   0  0  0  0  0  0  0  0  0  0  0  0
  -27.9646   -3.5724   -8.4289 C   0  0  0  0  0  0  0  0  0  0  0  0
  -28.4110   -2.6501   -7.4860 C   0  0  0  0  0  0  0  0  0  0  0  0
  -27.9170   -1.3433   -7.5351 C   0  0  0  0  0  0  0  0  0  0  0  0
  -28.2624   -0.4483   -6.5987 F   0  0  0  0  0  0  0  0  0  0  0  0
  -27.1211   -0.9167   -8.5980 C   0  0  0  0  0  0  0  0  0  0  0  0
  -29.3187   -3.0933   -6.5494 O   0  0  0  0  0  0  0  0  0  0  0  0
  -28.9669   -4.1531   -5.7224 C   0  0  0  0  0  0  0  0  0  0  0  0
  -28.2026   -3.9971   -4.5652 C   0  0  0  0  0  0  0  0  0  0  0  0
  -27.8273   -5.1223   -3.8757 C   0  0  0  0  0  0  0  0  0  0  0  0
  -28.2254   -6.3647   -4.1982 N   0  0  0  0  0  0  0  0  0  0  0  0
  -29.0441   -6.5138   -5.2509 C   0  0  0  0  0  0  0  0  0  0  0  0
  -29.5116   -7.7875   -5.5293 C   0  0  0  0  0  0  0  0  0  0  0  0
  -30.3918   -8.0481   -6.5800 C   0  0  0  0  0  0  0  0  0  0  0  0
  -30.7991   -6.9998   -7.3961 C   0  0  0  0  0  0  0  0  0  0  0  0
  -30.3284   -5.7042   -7.1474 C   0  0  0  0  0  0  0  0  0  0  0  0
  -29.4557   -5.4394   -6.0657 C   0  0  0  0  0  0  0  0  0  0  0  0
  -30.7676   -9.3583   -6.6866 O   0  0  0  0  0  0  0  0  0  0  0  0
  -31.9051   -9.6480   -7.4855 C   0  0  0  0  0  0  0  0  0  0  0  0
 21 22  1  0  0  0
 22 19  1  0  0  0
 19 20  1  0  0  0
 19 18  1  0  0  0
 18  5  1  0  0  0
  5  6  2  0  0  0
  5 10  1  0  0  0
  6  1  1  0  0  0
  6  7  1  0  0  0
  1  2  2  0  0  0
  1  3  1  0  0  0
  3 23  1  0  0  0
  3  4  1  0  0  0
 23 24  1  0  0  0
 23 29  2  0  0  0
 24 25  2  0  0  0
 25 26  1  0  0  0
 26 30  1  0  0  0
 26 27  2  0  0  0
 30 31  1  0  0  0
 31 32  1  0  0  0
 31 40  2  0  0  0
 32 33  2  0  0  0
 33 34  1  0  0  0
 34 35  2  0  0  0
 35 36  1  0  0  0
 35 40  1  0  0  0
 36 37  2  0  0  0
 37 41  1  0  0  0
 37 38  1  0  0  0
 41 42  1  0  0  0
 38 39  2  0  0  0
 39 40  1  0  0  0
 27 28  1  0  0  0
 27 29  1  0  0  0
  7  8  2  0  0  0
  7  9  1  0  0  0
  9 12  1  0  0  0
  9 10  1  0  0  0
 12 13  1  0  0  0
 12 17  2  0  0  0
 13 14  2  0  0  0
 14 15  1  0  0  0
 15 16  2  0  0  0
 16 17  1  0  0  0
 10 11  1  0  0  0
M  END
> <minimizedAffinity>
-5.14988

$$$$
