CHEMBL3671513


 38 40  0  0  0  0  0  0  0  0999 V2000
  -17.7268    2.4737  -15.0427 C   0  0  0  0  0  0  0  0  0  0  0  0
  -18.8401    3.3131  -14.8993 C   0  0  0  0  0  0  0  0  0  0  0  0
  -20.1241    2.8222  -14.6951 C   0  0  0  0  0  0  0  0  0  0  0  0
  -21.1286    3.6918  -14.5483 N   0  0  0  0  0  0  0  0  0  0  0  0
  -22.3362    3.1796  -14.2992 C   0  0  0  0  0  0  0  0  0  0  0  0
  -22.6256    1.8849  -14.1680 N   0  0  0  0  0  0  0  0  0  0  0  0
  -21.6126    1.0113  -14.3185 C   0  0  0  0  0  0  0  0  0  0  0  0
  -20.3113    1.4347  -14.6333 C   0  0  0  0  0  0  0  0  0  0  0  0
  -19.2059    0.5737  -14.8111 C   0  0  0  0  0  0  0  0  0  0  0  0
  -17.9136    1.0852  -14.9518 C   0  0  0  0  0  0  0  0  0  0  0  0
  -16.8800    0.1303  -14.9569 N   0  0  0  0  0  0  0  0  0  0  0  0
  -16.0429   -0.0523  -13.8767 C   0  0  0  0  0  0  0  0  0  0  0  0
  -16.0963    0.5368  -12.8055 O   0  0  0  0  0  0  0  0  0  0  0  0
  -16.9606   -0.6352  -15.6115 H   0  0  0  0  0  0  0  0  0  0  0  0
  -15.0101   -1.0880  -14.1476 C   0  0  0  0  0  0  0  0  0  0  0  0
  -15.0574   -2.2451  -13.4830 C   0  0  0  0  0  0  0  0  0  0  0  0
  -21.8740   -0.3656  -14.0730 N   0  0  0  0  0  0  0  0  0  0  0  0
  -21.7196   -0.9163  -14.9131 H   0  0  0  0  0  0  0  0  0  0  0  0
  -22.9979   -0.8219  -13.3406 C   0  0  0  0  0  0  0  0  0  0  0  0
  -22.8818   -1.1576  -11.9835 C   0  0  0  0  0  0  0  0  0  0  0  0
  -24.0092   -1.4777  -11.2260 C   0  0  0  0  0  0  0  0  0  0  0  0
  -25.2631   -1.4907  -11.8314 C   0  0  0  0  0  0  0  0  0  0  0  0
  -26.7988   -1.8241  -10.7813 Br  0  0  0  0  0  0  0  0  0  0  0  0
  -25.3945   -1.2363  -13.1946 C   0  0  0  0  0  0  0  0  0  0  0  0
  -24.2607   -0.9151  -13.9375 C   0  0  0  0  0  0  0  0  0  0  0  0
  -24.3933   -0.6465  -15.2463 F   0  0  0  0  0  0  0  0  0  0  0  0
  -16.5576    3.1493  -15.3154 O   0  0  0  0  0  0  0  0  0  0  0  0
  -16.6467    4.1488  -16.3355 C   0  0  0  0  0  0  0  0  0  0  0  0
  -15.2547    4.6114  -16.7832 C   0  0  0  0  0  0  0  0  0  0  0  0
  -12.5322    4.5533  -14.3527 N   0  0  0  0  0  0  0  0  0  0  0  0
  -13.3027    4.0910  -15.3943 C   0  0  0  0  0  0  0  0  0  0  0  0
  -13.0685    3.0518  -15.9933 O   0  0  0  0  0  0  0  0  0  0  0  0
  -14.3648    4.9131  -15.6622 N   0  0  0  0  0  0  0  0  0  0  0  0
  -13.0160    5.1222  -13.6760 H   0  0  0  0  0  0  0  0  0  0  0  0
  -14.1991    5.8916  -15.4694 H   0  0  0  0  0  0  0  0  0  0  0  0
  -11.4818    3.6959  -13.8617 C   0  0  0  0  0  0  0  0  0  0  0  0
  -12.3528    1.5781  -12.8376 C   0  0  0  0  0  0  0  0  0  0  0  0
  -12.0264    2.8742  -12.7406 C   0  0  0  0  0  0  0  0  0  0  0  0
 37 38  2  0  0  0
 38 36  1  0  0  0
 36 30  1  0  0  0
 30 31  1  0  0  0
 30 34  1  0  0  0
 31 32  2  0  0  0
 31 33  1  0  0  0
 33 29  1  0  0  0
 33 35  1  0  0  0
 29 28  1  0  0  0
 28 27  1  0  0  0
 27  1  1  0  0  0
  1  2  1  0  0  0
  1 10  2  0  0  0
  2  3  2  0  0  0
  3  4  1  0  0  0
  3  8  1  0  0  0
  4  5  2  0  0  0
  5  6  1  0  0  0
  6  7  2  0  0  0
  7 17  1  0  0  0
  7  8  1  0  0  0
 17 19  1  0  0  0
 17 18  1  0  0  0
 19 20  1  0  0  0
 19 25  2  0  0  0
 20 21  2  0  0  0
 21 22  1  0  0  0
 22 23  1  0  0  0
 22 24  2  0  0  0
 24 25  1  0  0  0
 25 26  1  0  0  0
  8  9  2  0  0  0
  9 10  1  0  0  0
 10 11  1  0  0  0
 11 12  1  0  0  0
 11 14  1  0  0  0
 12 13  2  0  0  0
 12 15  1  0  0  0
 15 16  2  0  0  0
M  END
> <minimizedAffinity>
-9.22392

$$$$
