CHEMBL487254


 40 46  0  0  0  0  0  0  0  0999 V2000
  -14.9385   -1.0406  -13.2083 N   0  0  0  0  0  0  0  0  0  0  0  0
  -15.7985   -0.0128  -12.8958 C   0  0  0  0  0  0  0  0  0  0  0  0
  -16.2746    0.2463  -11.7950 O   0  0  0  0  0  0  0  0  0  0  0  0
  -15.9308    0.8556  -14.1134 C   0  0  0  0  0  0  0  0  0  0  0  0
  -14.9359    0.4044  -14.9481 C   0  0  0  0  0  0  0  0  0  0  0  0
  -14.3986   -0.8474  -14.4150 C   0  0  0  0  0  0  0  0  0  0  0  0
  -13.6904   -1.6191  -15.0288 O   0  0  0  0  0  0  0  0  0  0  0  0
  -14.4887    0.9362  -16.1712 N   0  0  0  0  0  0  0  0  0  0  0  0
  -13.3597    0.6320  -16.9173 C   0  0  0  0  0  0  0  0  0  0  0  0
  -13.0488    1.7348  -17.6892 C   0  0  0  0  0  0  0  0  0  0  0  0
  -13.9770    2.7270  -17.3146 C   0  0  0  0  0  0  0  0  0  0  0  0
  -13.9850    4.1208  -17.2706 C   0  0  0  0  0  0  0  0  0  0  0  0
  -15.0817    4.7070  -16.6440 C   0  0  0  0  0  0  0  0  0  0  0  0
  -16.2375    3.9542  -16.3470 C   0  0  0  0  0  0  0  0  0  0  0  0
  -16.3516    2.5504  -16.5375 C   0  0  0  0  0  0  0  0  0  0  0  0
  -15.0637    2.0430  -16.7941 C   0  0  0  0  0  0  0  0  0  0  0  0
  -17.3653    1.6441  -15.8180 C   0  0  0  0  0  0  0  0  0  0  0  0
  -18.4285    0.4555  -15.5254 C   0  0  0  0  0  0  0  0  0  0  0  0
  -19.2402    1.1188  -14.4203 C   0  0  0  0  0  0  0  0  0  0  0  0
  -20.6401    1.2047  -14.5955 C   0  0  0  0  0  0  0  0  0  0  0  0
  -21.1680    2.4399  -14.9325 C   0  0  0  0  0  0  0  0  0  0  0  0
  -20.3220    3.5488  -14.9050 C   0  0  0  0  0  0  0  0  0  0  0  0
  -18.9936    3.4413  -14.3654 C   0  0  0  0  0  0  0  0  0  0  0  0
  -18.4061    2.1813  -14.0378 C   0  0  0  0  0  0  0  0  0  0  0  0
  -16.9099    1.8788  -14.4272 N   0  0  0  0  0  0  0  0  0  0  0  0
  -14.6063   -2.2138  -12.4330 C   0  0  0  0  0  0  0  0  0  0  0  0
  -15.7780   -3.2131  -12.4192 C   0  0  0  0  0  0  0  0  0  0  0  0
  -16.1622   -3.7320  -11.0295 C   0  0  0  0  0  0  0  0  0  0  0  0
  -14.8262   -3.4066   -9.8546 S   0  0  0  0  0  0  0  0  0  0  0  0
  -14.0428   -5.6130   -8.6226 N   0  0  0  0  0  0  0  0  0  0  0  0
  -14.0264   -4.9452   -9.7244 C   0  0  0  0  0  0  0  0  0  0  0  0
  -13.4535   -6.4387   -8.7607 H   0  0  0  0  0  0  0  0  0  0  0  0
  -13.3762   -5.2585  -10.8636 N   0  0  0  0  0  0  0  0  0  0  0  0
  -13.2194   -4.4717  -11.4934 H   0  0  0  0  0  0  0  0  0  0  0  0
  -13.4125   -6.4907  -11.5454 C   0  0  0  0  0  0  0  0  0  0  0  0
  -12.4370   -7.4874  -11.3605 C   0  0  0  0  0  0  0  0  0  0  0  0
  -12.4711   -8.7031  -12.0716 C   0  0  0  0  0  0  0  0  0  0  0  0
  -13.5024   -8.9232  -12.9694 C   0  0  0  0  0  0  0  0  0  0  0  0
  -14.4933   -7.9643  -13.1483 C   0  0  0  0  0  0  0  0  0  0  0  0
  -14.4672   -6.7577  -12.4198 C   0  0  0  0  0  0  0  0  0  0  0  0
 30 31  2  0  0  0
 30 32  1  0  0  0
 31 33  1  0  0  0
 31 29  1  0  0  0
 33 35  1  0  0  0
 33 34  1  0  0  0
 35 36  1  0  0  0
 35 40  2  0  0  0
 36 37  2  0  0  0
 37 38  1  0  0  0
 38 39  2  0  0  0
 39 40  1  0  0  0
 29 28  1  0  0  0
 28 27  1  0  0  0
 27 26  1  0  0  0
 26  1  1  0  0  0
  1  2  1  0  0  0
  1  6  1  0  0  0
  2  3  2  0  0  0
  2  4  1  0  0  0
  4  5  2  0  0  0
  4 25  1  0  0  0
  5  6  1  0  0  0
  5  8  1  0  0  0
  6  7  2  0  0  0
  8  9  1  0  0  0
  8 16  1  0  0  0
  9 10  2  0  0  0
 10 11  1  0  0  0
 11 12  1  0  0  0
 11 16  2  0  0  0
 12 13  2  0  0  0
 13 14  1  0  0  0
 14 15  2  0  0  0
 15 16  1  0  0  0
 15 17  1  0  0  0
 17 18  1  0  0  0
 17 25  1  0  0  0
 18 19  1  0  0  0
 19 20  1  0  0  0
 19 24  2  0  0  0
 20 21  2  0  0  0
 21 22  1  0  0  0
 22 23  2  0  0  0
 23 24  1  0  0  0
 24 25  1  0  0  0
M  END
> <minimizedAffinity>
-9.76804

$$$$
