CHEMBL1945801


 36 39  0  0  0  0  0  0  0  0999 V2000
  -29.8162   -5.0025   -5.7783 N   0  0  0  0  0  0  0  0  0  0  0  0
  -30.6857   -5.2463   -5.3243 H   0  0  0  0  0  0  0  0  0  0  0  0
  -29.2066   -6.1850   -6.2066 C   0  0  0  0  0  0  0  0  0  0  0  0
  -29.4779   -6.4641   -7.4941 N   0  0  0  0  0  0  0  0  0  0  0  0
  -29.2404   -7.7102   -7.9171 C   0  0  0  0  0  0  0  0  0  0  0  0
  -28.7548   -8.6788   -7.0872 C   0  0  0  0  0  0  0  0  0  0  0  0
  -28.3041   -8.2711   -5.8503 C   0  0  0  0  0  0  0  0  0  0  0  0
  -28.5287   -7.0175   -5.3958 N   0  0  0  0  0  0  0  0  0  0  0  0
  -27.7521   -9.2772   -4.9210 C   0  0  0  0  0  0  0  0  0  0  0  0
  -26.3851   -9.3079   -4.6058 C   0  0  0  0  0  0  0  0  0  0  0  0
  -25.8635  -10.3243   -3.7935 C   0  0  0  0  0  0  0  0  0  0  0  0
  -26.7199  -11.2507   -3.1999 C   0  0  0  0  0  0  0  0  0  0  0  0
  -26.0830  -12.4660   -2.1616 Cl  0  0  0  0  0  0  0  0  0  0  0  0
  -28.0798  -11.2377   -3.4860 C   0  0  0  0  0  0  0  0  0  0  0  0
  -28.5619  -10.3306   -4.4330 C   0  0  0  0  0  0  0  0  0  0  0  0
  -29.8290  -10.6142   -4.9879 N   0  0  0  0  0  0  0  0  0  0  0  0
  -30.1124  -10.5670   -6.3370 C   0  0  0  0  0  0  0  0  0  0  0  0
  -31.6417  -10.9867   -6.8700 S   0  0  0  0  0  0  0  0  0  0  0  0
  -29.0089  -10.1439   -7.3206 C   0  0  0  0  0  0  0  0  0  0  0  0
  -30.5112  -11.1052   -4.4183 H   0  0  0  0  0  0  0  0  0  0  0  0
  -28.5764   -1.6099   -6.8037 C   0  0  0  0  0  0  0  0  0  0  0  0
  -28.7810   -3.0095   -6.7620 C   0  0  0  0  0  0  0  0  0  0  0  0
  -29.4355   -3.6615   -5.7184 C   0  0  0  0  0  0  0  0  0  0  0  0
  -29.8028   -2.8927   -4.6140 C   0  0  0  0  0  0  0  0  0  0  0  0
  -29.5921   -1.5116   -4.6023 C   0  0  0  0  0  0  0  0  0  0  0  0
  -29.0064   -0.8430   -5.6990 C   0  0  0  0  0  0  0  0  0  0  0  0
  -28.9354    0.6681   -5.5946 C   0  0  0  0  0  0  0  0  0  0  0  0
  -28.6752    1.3361   -6.7494 F   0  0  0  0  0  0  0  0  0  0  0  0
  -30.1020    1.1961   -5.1205 F   0  0  0  0  0  0  0  0  0  0  0  0
  -27.9719    1.0772   -4.7193 F   0  0  0  0  0  0  0  0  0  0  0  0
  -27.8818   -0.9952   -8.0120 C   0  0  0  0  0  0  0  0  0  0  0  0
  -27.4901   -1.9888   -9.1165 C   0  0  0  0  0  0  0  0  0  0  0  0
  -27.5878   -1.3925  -10.5252 C   0  0  0  0  0  0  0  0  0  0  0  0
  -27.1842   -1.9605  -12.8369 C   0  0  0  0  0  0  0  0  0  0  0  0
  -26.6605   -2.0361  -11.4738 N   0  0  0  0  0  0  0  0  0  0  0  0
  -25.3260   -1.4467  -11.4384 C   0  0  0  0  0  0  0  0  0  0  0  0
 34 35  1  0  0  0
 35 36  1  0  0  0
 35 33  1  0  0  0
 33 32  1  0  0  0
 32 31  1  0  0  0
 31 21  1  0  0  0
 21 22  1  0  0  0
 21 26  2  0  0  0
 22 23  2  0  0  0
 23  1  1  0  0  0
 23 24  1  0  0  0
  1  3  1  0  0  0
  1  2  1  0  0  0
  3  4  1  0  0  0
  3  8  2  0  0  0
  4  5  2  0  0  0
  5  6  1  0  0  0
  6  7  2  0  0  0
  6 19  1  0  0  0
  7  8  1  0  0  0
  7  9  1  0  0  0
  9 10  1  0  0  0
  9 15  2  0  0  0
 10 11  2  0  0  0
 11 12  1  0  0  0
 12 13  1  0  0  0
 12 14  2  0  0  0
 14 15  1  0  0  0
 15 16  1  0  0  0
 16 17  1  0  0  0
 16 20  1  0  0  0
 17 18  2  0  0  0
 17 19  1  0  0  0
 24 25  2  0  0  0
 25 26  1  0  0  0
 26 27  1  0  0  0
 27 28  1  0  0  0
 27 29  1  0  0  0
 27 30  1  0  0  0
M  END
> <minimizedAffinity>
-9.63517

$$$$
