CHEMBL3358999


 30 32  0  0  0  0  0  0  0  0999 V2000
  -28.8071   -4.1416   -7.0164 C   0  0  0  0  0  0  0  0  0  0  0  0
  -28.9083   -3.3263   -5.9548 C   0  0  0  0  0  0  0  0  0  0  0  0
  -28.5141   -2.0232   -6.0491 N   0  0  0  0  0  0  0  0  0  0  0  0
  -28.0036   -1.5045   -7.2101 C   0  0  0  0  0  0  0  0  0  0  0  0
  -27.6566   -0.3374   -7.3036 O   0  0  0  0  0  0  0  0  0  0  0  0
  -27.9266   -2.5124   -8.3832 C   0  0  0  0  0  0  0  0  0  0  0  0
  -28.3284   -3.7514   -8.2468 N   0  0  0  0  0  0  0  0  0  0  0  0
  -28.5857   -1.3948   -5.2594 H   0  0  0  0  0  0  0  0  0  0  0  0
  -30.9447   -7.1956   -6.4087 C   0  0  0  0  0  0  0  0  0  0  0  0
  -30.5376   -5.8643   -6.5343 C   0  0  0  0  0  0  0  0  0  0  0  0
  -29.2049   -5.5488   -6.8479 C   0  0  0  0  0  0  0  0  0  0  0  0
  -28.2722   -6.5788   -7.0235 C   0  0  0  0  0  0  0  0  0  0  0  0
  -28.6661   -7.9112   -6.8948 C   0  0  0  0  0  0  0  0  0  0  0  0
  -29.9949   -8.2111   -6.5905 C   0  0  0  0  0  0  0  0  0  0  0  0
  -30.3849   -9.5183   -6.4682 O   0  0  0  0  0  0  0  0  0  0  0  0
  -29.6092  -10.0928   -6.5538 H   0  0  0  0  0  0  0  0  0  0  0  0
  -32.9572   -8.2364   -7.1568 C   0  0  0  0  0  0  0  0  0  0  0  0
  -32.2196   -7.6056   -6.1201 O   0  0  0  0  0  0  0  0  0  0  0  0
  -27.4074   -2.0575   -9.7038 C   0  0  0  0  0  0  0  0  0  0  0  0
  -28.2169   -2.0448  -10.8423 C   0  0  0  0  0  0  0  0  0  0  0  0
  -27.7129   -1.6571  -12.0909 C   0  0  0  0  0  0  0  0  0  0  0  0
  -26.3645   -1.2543  -12.1913 C   0  0  0  0  0  0  0  0  0  0  0  0
  -25.5521   -1.2356  -11.0278 C   0  0  0  0  0  0  0  0  0  0  0  0
  -26.0823   -1.6272   -9.7943 C   0  0  0  0  0  0  0  0  0  0  0  0
  -28.4908   -1.6524  -13.2191 O   0  0  0  0  0  0  0  0  0  0  0  0
  -28.6928   -2.8708  -13.9244 C   0  0  0  0  0  0  0  0  0  0  0  0
  -25.7058   -0.8554  -13.3325 O   0  0  0  0  0  0  0  0  0  0  0  0
  -25.3224   -1.8224  -14.2962 C   0  0  0  0  0  0  0  0  0  0  0  0
  -24.2496   -0.8256  -11.2023 O   0  0  0  0  0  0  0  0  0  0  0  0
  -23.2661   -1.8237  -11.4433 C   0  0  0  0  0  0  0  0  0  0  0  0
 17 18  1  0  0  0
 18  9  1  0  0  0
  9 10  1  0  0  0
  9 14  2  0  0  0
 10 11  2  0  0  0
 11  1  1  0  0  0
 11 12  1  0  0  0
  1  2  2  0  0  0
  1  7  1  0  0  0
  2  3  1  0  0  0
  3  4  1  0  0  0
  3  8  1  0  0  0
  4  5  2  0  0  0
  4  6  1  0  0  0
  6 19  1  0  0  0
  6  7  2  0  0  0
 19 20  1  0  0  0
 19 24  2  0  0  0
 20 21  2  0  0  0
 21 25  1  0  0  0
 21 22  1  0  0  0
 25 26  1  0  0  0
 22 27  1  0  0  0
 22 23  2  0  0  0
 27 28  1  0  0  0
 23 29  1  0  0  0
 23 24  1  0  0  0
 29 30  1  0  0  0
 12 13  2  0  0  0
 13 14  1  0  0  0
 14 15  1  0  0  0
 15 16  1  0  0  0
M  END
> <minimizedAffinity>
-5.79721

$$$$
