CHEMBL4520313


 35 38  0  0  0  0  0  0  0  0999 V2000
  -19.7615    1.0781  -15.1034 C   0  0  0  0  0  0  0  0  0  0  0  0
  -20.0067    2.4452  -15.3246 C   0  0  0  0  0  0  0  0  0  0  0  0
  -18.9705    3.3262  -15.6272 C   0  0  0  0  0  0  0  0  0  0  0  0
  -17.6746    2.8444  -15.7281 C   0  0  0  0  0  0  0  0  0  0  0  0
  -17.4034    1.4949  -15.4588 C   0  0  0  0  0  0  0  0  0  0  0  0
  -18.4442    0.6172  -15.1466 C   0  0  0  0  0  0  0  0  0  0  0  0
  -22.3741    1.5409  -13.9369 O   0  0  0  0  0  0  0  0  0  0  0  0
  -22.0054    0.4135  -14.2517 C   0  0  0  0  0  0  0  0  0  0  0  0
  -22.7302   -0.7357  -14.0200 N   0  0  0  0  0  0  0  0  0  0  0  0
  -20.7832    0.1338  -14.8493 N   0  0  0  0  0  0  0  0  0  0  0  0
  -22.2702   -1.6029  -14.1801 H   0  0  0  0  0  0  0  0  0  0  0  0
  -20.6652   -0.7882  -15.2382 H   0  0  0  0  0  0  0  0  0  0  0  0
  -23.9870   -0.8012  -13.3480 C   0  0  0  0  0  0  0  0  0  0  0  0
  -24.1842   -0.3788  -12.0283 C   0  0  0  0  0  0  0  0  0  0  0  0
  -25.4123   -0.5773  -11.3863 C   0  0  0  0  0  0  0  0  0  0  0  0
  -26.4569   -1.1829  -12.0794 C   0  0  0  0  0  0  0  0  0  0  0  0
  -27.9483   -1.4657  -11.2721 Cl  0  0  0  0  0  0  0  0  0  0  0  0
  -26.2962   -1.5717  -13.4044 C   0  0  0  0  0  0  0  0  0  0  0  0
  -25.0625   -1.3711  -14.0433 C   0  0  0  0  0  0  0  0  0  0  0  0
  -16.5959    3.7859  -16.0882 C   0  0  0  0  0  0  0  0  0  0  0  0
  -16.5813    4.9127  -15.6053 O   0  0  0  0  0  0  0  0  0  0  0  0
  -15.6537    3.2520  -16.9509 N   0  0  0  0  0  0  0  0  0  0  0  0
  -15.8450    2.3415  -17.3669 H   0  0  0  0  0  0  0  0  0  0  0  0
  -14.3553    3.5510  -16.6851 N   0  0  0  0  0  0  0  0  0  0  0  0
  -13.5678    2.5460  -16.4741 C   0  0  0  0  0  0  0  0  0  0  0  0
  -13.8178    1.0526  -16.6900 C   0  0  0  0  0  0  0  0  0  0  0  0
  -14.6732    0.5777  -17.4043 O   0  0  0  0  0  0  0  0  0  0  0  0
  -12.9478    0.4202  -15.8297 N   0  0  0  0  0  0  0  0  0  0  0  0
  -12.3408    1.3655  -15.0064 C   0  0  0  0  0  0  0  0  0  0  0  0
  -11.9583    1.1947  -13.6934 C   0  0  0  0  0  0  0  0  0  0  0  0
  -11.6560    2.3535  -12.9607 C   0  0  0  0  0  0  0  0  0  0  0  0
  -11.6317    3.6265  -13.5696 C   0  0  0  0  0  0  0  0  0  0  0  0
  -12.0293    3.7847  -14.8918 C   0  0  0  0  0  0  0  0  0  0  0  0
  -12.4511    2.6447  -15.5441 C   0  0  0  0  0  0  0  0  0  0  0  0
  -12.8343   -0.5815  -15.7862 H   0  0  0  0  0  0  0  0  0  0  0  0
  7  8  2  0  0  0
  8  9  1  0  0  0
  8 10  1  0  0  0
  9 13  1  0  0  0
  9 11  1  0  0  0
 13 14  1  0  0  0
 13 19  2  0  0  0
 14 15  2  0  0  0
 15 16  1  0  0  0
 16 17  1  0  0  0
 16 18  2  0  0  0
 18 19  1  0  0  0
 10  1  1  0  0  0
 10 12  1  0  0  0
  1  2  1  0  0  0
  1  6  2  0  0  0
  2  3  2  0  0  0
  3  4  1  0  0  0
  4 20  1  0  0  0
  4  5  2  0  0  0
 20 21  2  0  0  0
 20 22  1  0  0  0
 22 24  1  0  0  0
 22 23  1  0  0  0
 24 25  2  0  0  0
 25 26  1  0  0  0
 25 34  1  0  0  0
 26 27  2  0  0  0
 26 28  1  0  0  0
 28 29  1  0  0  0
 28 35  1  0  0  0
 29 30  1  0  0  0
 29 34  2  0  0  0
 30 31  2  0  0  0
 31 32  1  0  0  0
 32 33  2  0  0  0
 33 34  1  0  0  0
  5  6  1  0  0  0
M  END
> <minimizedAffinity>
-10.05265

$$$$
