CHEMBL4086340


 42 45  0  0  0  0  0  0  0  0999 V2000
  -27.0078   -1.4747  -10.1764 C   0  0  0  0  0  0  0  0  0  0  0  0
  -27.7011   -0.9909  -11.0666 O   0  0  0  0  0  0  0  0  0  0  0  0
  -25.6322   -1.6546  -10.2290 N   0  0  0  0  0  0  0  0  0  0  0  0
  -25.2121   -2.2797   -9.5530 H   0  0  0  0  0  0  0  0  0  0  0  0
  -28.8257   -3.6858   -7.6737 C   0  0  0  0  0  0  0  0  0  0  0  0
  -28.3396   -3.2193   -8.9066 C   0  0  0  0  0  0  0  0  0  0  0  0
  -27.7299   -1.9647   -8.9753 C   0  0  0  0  0  0  0  0  0  0  0  0
  -27.6495   -1.1667   -7.8246 C   0  0  0  0  0  0  0  0  0  0  0  0
  -28.1488   -1.6209   -6.6079 C   0  0  0  0  0  0  0  0  0  0  0  0
  -28.7273   -2.8914   -6.5144 C   0  0  0  0  0  0  0  0  0  0  0  0
  -29.1809   -3.3820   -5.1651 C   0  0  0  0  0  0  0  0  0  0  0  0
  -29.7758   -6.1424   -7.6023 C   0  0  0  0  0  0  0  0  0  0  0  0
  -29.3536   -5.0141   -7.5990 C   0  0  0  0  0  0  0  0  0  0  0  0
  -30.0423   -9.7940   -8.4131 C   0  0  0  0  0  0  0  0  0  0  0  0
  -31.2769  -10.0039   -7.7841 C   0  0  0  0  0  0  0  0  0  0  0  0
  -32.0004   -9.0703   -7.1113 N   0  0  0  0  0  0  0  0  0  0  0  0
  -31.4734   -7.8283   -7.0631 C   0  0  0  0  0  0  0  0  0  0  0  0
  -30.2716   -7.4824   -7.6577 C   0  0  0  0  0  0  0  0  0  0  0  0
  -29.5554   -8.4820   -8.3259 C   0  0  0  0  0  0  0  0  0  0  0  0
  -29.3575  -10.8068   -9.0725 N   0  0  0  0  0  0  0  0  0  0  0  0
  -27.4759  -10.4703  -10.6476 C   0  0  0  0  0  0  0  0  0  0  0  0
  -28.9787  -10.6297  -10.4791 C   0  0  0  0  0  0  0  0  0  0  0  0
  -28.8542  -11.9847   -8.3594 C   0  0  0  0  0  0  0  0  0  0  0  0
  -27.9274  -11.5719   -7.2232 C   0  0  0  0  0  0  0  0  0  0  0  0
  -24.8377   -1.2762  -11.3429 C   0  0  0  0  0  0  0  0  0  0  0  0
  -23.6170   -0.6205  -11.1997 C   0  0  0  0  0  0  0  0  0  0  0  0
  -22.9370   -0.1221  -12.3079 C   0  0  0  0  0  0  0  0  0  0  0  0
  -23.4542   -0.2754  -13.6022 C   0  0  0  0  0  0  0  0  0  0  0  0
  -24.6379   -1.0248  -13.7814 C   0  0  0  0  0  0  0  0  0  0  0  0
  -25.3061   -1.5317  -12.6356 C   0  0  0  0  0  0  0  0  0  0  0  0
  -25.2931   -1.2802  -15.1261 C   0  0  0  0  0  0  0  0  0  0  0  0
  -24.9430   -0.4638  -16.1529 F   0  0  0  0  0  0  0  0  0  0  0  0
  -25.0080   -2.5392  -15.5795 F   0  0  0  0  0  0  0  0  0  0  0  0
  -26.6547   -1.2325  -15.0466 F   0  0  0  0  0  0  0  0  0  0  0  0
  -22.7395    0.4497  -14.7250 C   0  0  0  0  0  0  0  0  0  0  0  0
  -21.4907    1.0699  -14.2823 N   0  0  0  0  0  0  0  0  0  0  0  0
  -20.2850    0.5645  -14.9605 C   0  0  0  0  0  0  0  0  0  0  0  0
  -19.0126    1.2395  -14.3943 C   0  0  0  0  0  0  0  0  0  0  0  0
  -19.0149    2.7151  -14.4538 N   0  0  0  0  0  0  0  0  0  0  0  0
  -18.8181    3.1932  -15.8191 C   0  0  0  0  0  0  0  0  0  0  0  0
  -20.2771    3.2192  -13.8745 C   0  0  0  0  0  0  0  0  0  0  0  0
  -21.5598    2.5369  -14.4045 C   0  0  0  0  0  0  0  0  0  0  0  0
 21 22  1  0  0  0
 22 20  1  0  0  0
 20 23  1  0  0  0
 20 14  1  0  0  0
 23 24  1  0  0  0
 14 15  1  0  0  0
 14 19  2  0  0  0
 15 16  2  0  0  0
 16 17  1  0  0  0
 17 18  2  0  0  0
 18 12  1  0  0  0
 18 19  1  0  0  0
 12 13  3  0  0  0
 13  5  1  0  0  0
  5  6  1  0  0  0
  5 10  2  0  0  0
  6  7  2  0  0  0
  7  1  1  0  0  0
  7  8  1  0  0  0
  1  2  2  0  0  0
  1  3  1  0  0  0
  3 25  1  0  0  0
  3  4  1  0  0  0
 25 26  1  0  0  0
 25 30  2  0  0  0
 26 27  2  0  0  0
 27 28  1  0  0  0
 28 35  1  0  0  0
 28 29  2  0  0  0
 35 36  1  0  0  0
 36 37  1  0  0  0
 36 42  1  0  0  0
 37 38  1  0  0  0
 38 39  1  0  0  0
 39 40  1  0  0  0
 39 41  1  0  0  0
 41 42  1  0  0  0
 29 31  1  0  0  0
 29 30  1  0  0  0
 31 32  1  0  0  0
 31 33  1  0  0  0
 31 34  1  0  0  0
  8  9  2  0  0  0
  9 10  1  0  0  0
 10 11  1  0  0  0
M  END
> <minimizedAffinity>
-9.75113

$$$$
