CHEMBL170589


 23 26  0  0  0  0  0  0  0  0999 V2000
  -14.1066    2.7158  -15.6597 C   0  0  0  0  0  0  0  0  0  0  0  0
  -13.7789    1.3834  -15.4708 C   0  0  0  0  0  0  0  0  0  0  0  0
  -14.8878    0.5818  -15.4443 N   0  0  0  0  0  0  0  0  0  0  0  0
  -15.9021    1.4066  -15.5908 C   0  0  0  0  0  0  0  0  0  0  0  0
  -17.2962    1.2096  -15.3848 C   0  0  0  0  0  0  0  0  0  0  0  0
  -18.1574    2.2467  -15.5277 C   0  0  0  0  0  0  0  0  0  0  0  0
  -17.6827    3.5280  -16.0482 C   0  0  0  0  0  0  0  0  0  0  0  0
  -16.3640    3.7346  -16.1837 C   0  0  0  0  0  0  0  0  0  0  0  0
  -15.4744    2.7030  -15.8773 N   0  0  0  0  0  0  0  0  0  0  0  0
  -11.6266    4.8961  -14.1946 C   0  0  0  0  0  0  0  0  0  0  0  0
  -11.6159    6.0121  -15.0174 C   0  0  0  0  0  0  0  0  0  0  0  0
  -12.5274    6.0678  -16.0637 C   0  0  0  0  0  0  0  0  0  0  0  0
  -13.4021    5.0048  -16.2511 C   0  0  0  0  0  0  0  0  0  0  0  0
  -13.3239    3.9122  -15.3900 C   0  0  0  0  0  0  0  0  0  0  0  0
  -12.4563    3.8425  -14.3603 N   0  0  0  0  0  0  0  0  0  0  0  0
  -11.0285    3.9709  -12.1314 C   0  0  0  0  0  0  0  0  0  0  0  0
  -10.7028    4.8908  -13.1677 O   0  0  0  0  0  0  0  0  0  0  0  0
  -19.5261    2.0737  -15.0264 C   0  0  0  0  0  0  0  0  0  0  0  0
  -20.2661    3.2112  -14.6603 C   0  0  0  0  0  0  0  0  0  0  0  0
  -21.5718    3.0792  -14.1921 C   0  0  0  0  0  0  0  0  0  0  0  0
  -22.1457    1.8130  -14.0912 C   0  0  0  0  0  0  0  0  0  0  0  0
  -21.4163    0.6820  -14.4587 C   0  0  0  0  0  0  0  0  0  0  0  0
  -20.1072    0.8101  -14.9284 C   0  0  0  0  0  0  0  0  0  0  0  0
 16 17  1  0  0  0
 17 10  1  0  0  0
 10 11  1  0  0  0
 10 15  2  0  0  0
 11 12  2  0  0  0
 12 13  1  0  0  0
 13 14  2  0  0  0
 14  1  1  0  0  0
 14 15  1  0  0  0
  1  2  2  0  0  0
  1  9  1  0  0  0
  2  3  1  0  0  0
  3  4  2  0  0  0
  4  5  1  0  0  0
  4  9  1  0  0  0
  5  6  2  0  0  0
  6 18  1  0  0  0
  6  7  1  0  0  0
 18 19  1  0  0  0
 18 23  2  0  0  0
 19 20  2  0  0  0
 20 21  1  0  0  0
 21 22  2  0  0  0
 22 23  1  0  0  0
  7  8  2  0  0  0
  8  9  1  0  0  0
M  END
> <minimizedAffinity>
-8.14732

$$$$
