CHEMBL2000879


 16 18  0  0  0  0  0  0  0  0999 V2000
  -21.6939    1.0672  -13.7051 C   0  0  0  0  0  0  0  0  0  0  0  0
  -22.3502    2.3944  -14.1794 C   0  0  0  0  0  0  0  0  0  0  0  0
  -21.3063    3.5360  -14.2342 C   0  0  0  0  0  0  0  0  0  0  0  0
  -20.0352    3.0189  -14.8059 C   0  0  0  0  0  0  0  0  0  0  0  0
  -18.9257    3.7470  -15.1120 N   0  0  0  0  0  0  0  0  0  0  0  0
  -17.9114    2.9855  -15.5659 N   0  0  0  0  0  0  0  0  0  0  0  0
  -18.3943    1.7384  -15.5203 C   0  0  0  0  0  0  0  0  0  0  0  0
  -19.7132    1.7002  -15.0401 C   0  0  0  0  0  0  0  0  0  0  0  0
  -20.6507    0.5816  -14.7524 C   0  0  0  0  0  0  0  0  0  0  0  0
  -18.7759    4.7464  -15.0207 H   0  0  0  0  0  0  0  0  0  0  0  0
  -24.4645   -2.0517  -12.5789 C   0  0  0  0  0  0  0  0  0  0  0  0
  -24.5762   -1.4554  -13.8347 C   0  0  0  0  0  0  0  0  0  0  0  0
  -23.6946   -0.4392  -14.2136 C   0  0  0  0  0  0  0  0  0  0  0  0
  -22.6902   -0.0108  -13.3376 C   0  0  0  0  0  0  0  0  0  0  0  0
  -22.5938   -0.6192  -12.0738 C   0  0  0  0  0  0  0  0  0  0  0  0
  -23.4753   -1.6318  -11.6969 C   0  0  0  0  0  0  0  0  0  0  0  0
 11 12  1  0  0  0
 11 16  2  0  0  0
 12 13  2  0  0  0
 13 14  1  0  0  0
 14  1  1  0  0  0
 14 15  2  0  0  0
  1  2  1  0  0  0
  1  9  1  0  0  0
  2  3  1  0  0  0
  3  4  1  0  0  0
  4  5  1  0  0  0
  4  8  2  0  0  0
  5  6  1  0  0  0
  5 10  1  0  0  0
  6  7  2  0  0  0
  7  8  1  0  0  0
  8  9  1  0  0  0
 15 16  1  0  0  0
M  END
> <minimizedAffinity>
-8.94616

$$$$
