CHEMBL1255011


 27 30  0  0  0  0  0  0  0  0999 V2000
  -29.2653   -3.5069   -7.2692 C   0  0  0  0  0  0  0  0  0  0  0  0
  -29.0045   -2.7066   -6.1533 C   0  0  0  0  0  0  0  0  0  0  0  0
  -28.1680   -1.5937   -6.2630 C   0  0  0  0  0  0  0  0  0  0  0  0
  -27.6129   -1.2513   -7.4974 C   0  0  0  0  0  0  0  0  0  0  0  0
  -27.9051   -2.0255   -8.6283 C   0  0  0  0  0  0  0  0  0  0  0  0
  -28.7388   -3.1484   -8.5093 C   0  0  0  0  0  0  0  0  0  0  0  0
  -27.4227   -1.6589   -9.9851 C   0  0  0  0  0  0  0  0  0  0  0  0
  -28.2260   -1.1195  -10.7385 O   0  0  0  0  0  0  0  0  0  0  0  0
  -26.1179   -2.0150  -10.2866 N   0  0  0  0  0  0  0  0  0  0  0  0
  -25.6331   -2.6110   -9.6285 H   0  0  0  0  0  0  0  0  0  0  0  0
  -25.4627   -1.7860  -11.5195 C   0  0  0  0  0  0  0  0  0  0  0  0
  -26.1293   -1.7296  -12.7468 C   0  0  0  0  0  0  0  0  0  0  0  0
  -25.4217   -1.5466  -13.9385 C   0  0  0  0  0  0  0  0  0  0  0  0
  -24.0370   -1.4121  -13.9147 C   0  0  0  0  0  0  0  0  0  0  0  0
  -23.3626   -1.4408  -12.6972 C   0  0  0  0  0  0  0  0  0  0  0  0
  -24.0725   -1.6160  -11.5035 C   0  0  0  0  0  0  0  0  0  0  0  0
  -30.1012   -4.6018   -7.2500 O   0  0  0  0  0  0  0  0  0  0  0  0
  -30.8607   -4.6941   -4.2806 C   0  0  0  0  0  0  0  0  0  0  0  0
  -30.1298   -5.9271   -4.4795 N   0  0  0  0  0  0  0  0  0  0  0  0
  -29.8691   -6.8440   -3.4878 C   0  0  0  0  0  0  0  0  0  0  0  0
  -29.1671   -7.8879   -4.0524 C   0  0  0  0  0  0  0  0  0  0  0  0
  -29.0048   -7.5943   -5.4253 C   0  0  0  0  0  0  0  0  0  0  0  0
  -28.3872   -8.3221   -6.3787 N   0  0  0  0  0  0  0  0  0  0  0  0
  -28.4259   -7.7545   -7.5899 C   0  0  0  0  0  0  0  0  0  0  0  0
  -28.9735   -6.5776   -7.9310 N   0  0  0  0  0  0  0  0  0  0  0  0
  -29.5486   -5.8393   -6.9555 C   0  0  0  0  0  0  0  0  0  0  0  0
  -29.6020   -6.3637   -5.6728 C   0  0  0  0  0  0  0  0  0  0  0  0
 18 19  1  0  0  0
 19 20  1  0  0  0
 19 27  1  0  0  0
 20 21  2  0  0  0
 21 22  1  0  0  0
 22 23  1  0  0  0
 22 27  2  0  0  0
 23 24  2  0  0  0
 24 25  1  0  0  0
 25 26  2  0  0  0
 26 17  1  0  0  0
 26 27  1  0  0  0
 17  1  1  0  0  0
  1  2  1  0  0  0
  1  6  2  0  0  0
  2  3  2  0  0  0
  3  4  1  0  0  0
  4  5  2  0  0  0
  5  7  1  0  0  0
  5  6  1  0  0  0
  7  8  2  0  0  0
  7  9  1  0  0  0
  9 11  1  0  0  0
  9 10  1  0  0  0
 11 12  1  0  0  0
 11 16  2  0  0  0
 12 13  2  0  0  0
 13 14  1  0  0  0
 14 15  2  0  0  0
 15 16  1  0  0  0
M  END
> <minimizedAffinity>
-9.40632

$$$$
