CHEMBL231454


 31 34  0  0  0  0  0  0  0  0999 V2000
  -20.0176    1.2681  -15.0164 C   0  0  0  0  0  0  0  0  0  0  0  0
  -20.3199    2.6335  -15.0134 C   0  0  0  0  0  0  0  0  0  0  0  0
  -19.3143    3.5772  -15.1867 C   0  0  0  0  0  0  0  0  0  0  0  0
  -18.0046    3.1536  -15.4007 C   0  0  0  0  0  0  0  0  0  0  0  0
  -17.6671    1.7872  -15.3602 C   0  0  0  0  0  0  0  0  0  0  0  0
  -18.6815    0.8562  -15.0853 C   0  0  0  0  0  0  0  0  0  0  0  0
  -16.2815    1.3669  -15.6374 C   0  0  0  0  0  0  0  0  0  0  0  0
  -15.7718    1.5623  -16.9096 C   0  0  0  0  0  0  0  0  0  0  0  0
  -14.1842    1.0044  -17.0997 S   0  0  0  0  0  0  0  0  0  0  0  0
  -14.0972    0.4925  -15.4632 C   0  0  0  0  0  0  0  0  0  0  0  0
  -12.9755   -0.0955  -14.8666 C   0  0  0  0  0  0  0  0  0  0  0  0
  -13.1068   -0.4400  -13.5445 C   0  0  0  0  0  0  0  0  0  0  0  0
  -14.2301   -0.2667  -12.8330 N   0  0  0  0  0  0  0  0  0  0  0  0
  -15.3248    0.2832  -13.4062 C   0  0  0  0  0  0  0  0  0  0  0  0
  -16.4287    0.3406  -12.5606 N   0  0  0  0  0  0  0  0  0  0  0  0
  -15.2937    0.7175  -14.7633 C   0  0  0  0  0  0  0  0  0  0  0  0
  -16.2270   -0.2329  -11.7470 H   0  0  0  0  0  0  0  0  0  0  0  0
  -17.2929    0.1000  -13.0321 H   0  0  0  0  0  0  0  0  0  0  0  0
  -22.8726   -0.8099  -14.1437 N   0  0  0  0  0  0  0  0  0  0  0  0
  -21.9314    0.1951  -13.9714 C   0  0  0  0  0  0  0  0  0  0  0  0
  -21.8803    0.9450  -13.0015 O   0  0  0  0  0  0  0  0  0  0  0  0
  -21.0526    0.2926  -15.0472 N   0  0  0  0  0  0  0  0  0  0  0  0
  -22.6937   -1.4761  -14.8777 H   0  0  0  0  0  0  0  0  0  0  0  0
  -21.4790    0.1282  -15.9492 H   0  0  0  0  0  0  0  0  0  0  0  0
  -27.6490   -2.0377  -13.5763 C   0  0  0  0  0  0  0  0  0  0  0  0
  -26.3111   -1.6962  -12.9869 C   0  0  0  0  0  0  0  0  0  0  0  0
  -26.1543   -1.6615  -11.5982 C   0  0  0  0  0  0  0  0  0  0  0  0
  -24.9247   -1.3433  -11.0434 C   0  0  0  0  0  0  0  0  0  0  0  0
  -23.8363   -1.0520  -11.8678 C   0  0  0  0  0  0  0  0  0  0  0  0
  -23.9550   -1.0898  -13.2629 C   0  0  0  0  0  0  0  0  0  0  0  0
  -25.2045   -1.4091  -13.8135 C   0  0  0  0  0  0  0  0  0  0  0  0
 25 26  1  0  0  0
 26 27  1  0  0  0
 26 31  2  0  0  0
 27 28  2  0  0  0
 28 29  1  0  0  0
 29 30  2  0  0  0
 30 19  1  0  0  0
 30 31  1  0  0  0
 19 20  1  0  0  0
 19 23  1  0  0  0
 20 21  2  0  0  0
 20 22  1  0  0  0
 22  1  1  0  0  0
 22 24  1  0  0  0
  1  2  1  0  0  0
  1  6  2  0  0  0
  2  3  2  0  0  0
  3  4  1  0  0  0
  4  5  2  0  0  0
  5  7  1  0  0  0
  5  6  1  0  0  0
  7  8  2  0  0  0
  7 16  1  0  0  0
  8  9  1  0  0  0
  9 10  1  0  0  0
 10 11  1  0  0  0
 10 16  2  0  0  0
 11 12  2  0  0  0
 12 13  1  0  0  0
 13 14  2  0  0  0
 14 15  1  0  0  0
 14 16  1  0  0  0
 15 17  1  0  0  0
 15 18  1  0  0  0
M  END
> <minimizedAffinity>
-9.98867

$$$$
