CHEMBL3934134


 35 39  0  0  0  0  0  0  0  0999 V2000
  -28.7694   -8.7203   -7.7671 C   0  0  0  0  0  0  0  0  0  0  0  0
  -29.2191   -7.5583   -7.1372 C   0  0  0  0  0  0  0  0  0  0  0  0
  -29.3619   -7.4729   -5.7413 C   0  0  0  0  0  0  0  0  0  0  0  0
  -29.7800   -6.3043   -5.0745 C   0  0  0  0  0  0  0  0  0  0  0  0
  -29.7835   -6.2074   -3.7376 N   0  0  0  0  0  0  0  0  0  0  0  0
  -29.4304   -7.3104   -3.0678 C   0  0  0  0  0  0  0  0  0  0  0  0
  -29.0721   -8.4868   -3.5989 N   0  0  0  0  0  0  0  0  0  0  0  0
  -29.0298   -8.5633   -4.9315 C   0  0  0  0  0  0  0  0  0  0  0  0
  -28.6509   -9.7435   -5.5670 C   0  0  0  0  0  0  0  0  0  0  0  0
  -28.5514   -9.8569   -6.9665 C   0  0  0  0  0  0  0  0  0  0  0  0
  -27.1681   -8.6509   -9.5950 C   0  0  0  0  0  0  0  0  0  0  0  0
  -28.5004   -8.7836   -9.1038 O   0  0  0  0  0  0  0  0  0  0  0  0
  -30.2320   -5.2143   -5.8496 N   0  0  0  0  0  0  0  0  0  0  0  0
  -31.1717   -5.3777   -6.2059 H   0  0  0  0  0  0  0  0  0  0  0  0
  -29.8904   -3.8470   -5.7585 C   0  0  0  0  0  0  0  0  0  0  0  0
  -30.1857   -3.1249   -4.5990 C   0  0  0  0  0  0  0  0  0  0  0  0
  -29.6770   -1.8420   -4.4024 C   0  0  0  0  0  0  0  0  0  0  0  0
  -28.8676   -1.2499   -5.3735 C   0  0  0  0  0  0  0  0  0  0  0  0
  -28.1251    0.4480   -4.9473 Br  0  0  0  0  0  0  0  0  0  0  0  0
  -28.6033   -1.9225   -6.5763 C   0  0  0  0  0  0  0  0  0  0  0  0
  -27.6356   -1.1727   -7.8081 Cl  0  0  0  0  0  0  0  0  0  0  0  0
  -29.1128   -3.2225   -6.7596 C   0  0  0  0  0  0  0  0  0  0  0  0
  -28.7956   -4.1150   -8.2243 Cl  0  0  0  0  0  0  0  0  0  0  0  0
  -28.2261  -11.1341   -7.3771 O   0  0  0  0  0  0  0  0  0  0  0  0
  -27.1187  -11.7455   -6.7151 C   0  0  0  0  0  0  0  0  0  0  0  0
  -25.7941  -11.1042   -7.1165 C   0  0  0  0  0  0  0  0  0  0  0  0
  -24.8098  -12.0184   -7.8232 C   0  0  0  0  0  0  0  0  0  0  0  0
  -23.5149  -11.4228   -7.6096 O   0  0  0  0  0  0  0  0  0  0  0  0
  -23.5376  -10.8047   -6.3089 C   0  0  0  0  0  0  0  0  0  0  0  0
  -22.9775  -11.7558   -5.2524 C   0  0  0  0  0  0  0  0  0  0  0  0
  -23.9621  -11.5840   -4.1114 C   0  0  0  0  0  0  0  0  0  0  0  0
  -25.2358  -11.3790   -4.7334 O   0  0  0  0  0  0  0  0  0  0  0  0
  -24.9946  -10.6111   -5.9222 C   0  0  0  0  0  0  0  0  0  0  0  0
  -21.6529  -11.4398   -4.8269 O   0  0  0  0  0  0  0  0  0  0  0  0
  -21.4898  -11.5841   -3.4194 C   0  0  0  0  0  0  0  0  0  0  0  0
 11 12  1  0  0  0
 12  1  1  0  0  0
  1  2  1  0  0  0
  1 10  2  0  0  0
  2  3  2  0  0  0
  3  4  1  0  0  0
  3  8  1  0  0  0
  4 13  1  0  0  0
  4  5  2  0  0  0
 13 15  1  0  0  0
 13 14  1  0  0  0
 15 16  1  0  0  0
 15 22  2  0  0  0
 16 17  2  0  0  0
 17 18  1  0  0  0
 18 19  1  0  0  0
 18 20  2  0  0  0
 20 21  1  0  0  0
 20 22  1  0  0  0
 22 23  1  0  0  0
  5  6  1  0  0  0
  6  7  2  0  0  0
  7  8  1  0  0  0
  8  9  2  0  0  0
  9 10  1  0  0  0
 10 24  1  0  0  0
 24 25  1  0  0  0
 25 26  1  0  0  0
 26 27  1  0  0  0
 26 33  1  0  0  0
 27 28  1  0  0  0
 28 29  1  0  0  0
 29 30  1  0  0  0
 29 33  1  0  0  0
 30 34  1  0  0  0
 30 31  1  0  0  0
 34 35  1  0  0  0
 31 32  1  0  0  0
 32 33  1  0  0  0
M  END
> <minimizedAffinity>
-8.12442

$$$$
