CHEMBL373575


 37 42  0  0  0  0  0  0  0  0999 V2000
  -29.3554   -8.7518   -7.5718 C   0  0  0  0  0  0  0  0  0  0  0  0
  -28.6861   -8.1465   -8.6151 C   0  0  0  0  0  0  0  0  0  0  0  0
  -28.3328   -6.8284   -8.5188 C   0  0  0  0  0  0  0  0  0  0  0  0
  -28.6632   -6.1470   -7.3528 C   0  0  0  0  0  0  0  0  0  0  0  0
  -29.4998   -6.6249   -6.3181 C   0  0  0  0  0  0  0  0  0  0  0  0
  -29.8877   -7.9840   -6.4632 C   0  0  0  0  0  0  0  0  0  0  0  0
  -29.6623   -5.4803   -5.4833 C   0  0  0  0  0  0  0  0  0  0  0  0
  -30.5045   -5.1840   -4.3962 C   0  0  0  0  0  0  0  0  0  0  0  0
  -30.5544   -3.7368   -3.8004 C   0  0  0  0  0  0  0  0  0  0  0  0
  -29.5969   -2.6080   -4.1870 C   0  0  0  0  0  0  0  0  0  0  0  0
  -28.5879   -3.2848   -5.0163 C   0  0  0  0  0  0  0  0  0  0  0  0
  -28.7336   -4.5188   -5.7298 C   0  0  0  0  0  0  0  0  0  0  0  0
  -28.2479   -4.8922   -7.0103 N   0  0  0  0  0  0  0  0  0  0  0  0
  -27.7717   -2.3147   -5.8114 C   0  0  0  0  0  0  0  0  0  0  0  0
  -28.2313   -1.2630   -6.8148 C   0  0  0  0  0  0  0  0  0  0  0  0
  -29.5334   -0.6986   -6.2370 C   0  0  0  0  0  0  0  0  0  0  0  0
  -29.8069    0.5347   -6.6529 N   0  0  0  0  0  0  0  0  0  0  0  0
  -28.9522    1.1677   -5.8386 N   0  0  0  0  0  0  0  0  0  0  0  0
  -28.0656    2.1257   -6.5432 C   0  0  0  0  0  0  0  0  0  0  0  0
  -28.9269    0.3181   -4.5924 C   0  0  0  0  0  0  0  0  0  0  0  0
  -29.7779   -0.9266   -4.7885 C   0  0  0  0  0  0  0  0  0  0  0  0
  -31.3422   -3.9969   -2.5461 C   0  0  0  0  0  0  0  0  0  0  0  0
  -31.5476   -3.3439   -1.5308 O   0  0  0  0  0  0  0  0  0  0  0  0
  -31.7854   -5.3406   -2.6139 N   0  0  0  0  0  0  0  0  0  0  0  0
  -31.2421   -6.1836   -3.6423 C   0  0  0  0  0  0  0  0  0  0  0  0
  -32.2030   -5.7823   -1.7979 H   0  0  0  0  0  0  0  0  0  0  0  0
  -28.5165  -11.0800   -7.3500 C   0  0  0  0  0  0  0  0  0  0  0  0
  -27.4909  -10.8628   -6.7017 O   0  0  0  0  0  0  0  0  0  0  0  0
  -29.5214  -10.1293   -7.6285 N   0  0  0  0  0  0  0  0  0  0  0  0
  -30.3960  -10.6013   -7.8400 H   0  0  0  0  0  0  0  0  0  0  0  0
  -28.8872  -12.2758   -7.7961 O   0  0  0  0  0  0  0  0  0  0  0  0
  -29.3375  -12.2581   -9.1622 C   0  0  0  0  0  0  0  0  0  0  0  0
  -28.4945  -10.8663  -11.0728 C   0  0  0  0  0  0  0  0  0  0  0  0
  -28.2078  -12.0518  -10.1603 C   0  0  0  0  0  0  0  0  0  0  0  0
  -27.7097   -3.9399   -7.9611 C   0  0  0  0  0  0  0  0  0  0  0  0
  -28.3051   -3.1567   -9.1266 C   0  0  0  0  0  0  0  0  0  0  0  0
  -27.1779   -2.3784   -9.8262 C   0  0  0  0  0  0  0  0  0  0  0  0
 33 34  1  0  0  0
 34 32  1  0  0  0
 32 31  1  0  0  0
 31 27  1  0  0  0
 27 28  2  0  0  0
 27 29  1  0  0  0
 29  1  1  0  0  0
 29 30  1  0  0  0
  1  2  1  0  0  0
  1  6  2  0  0  0
  2  3  2  0  0  0
  3  4  1  0  0  0
  4  5  2  0  0  0
  4 13  1  0  0  0
  5  6  1  0  0  0
  5  7  1  0  0  0
  7  8  1  0  0  0
  7 12  2  0  0  0
  8  9  2  0  0  0
  8 25  1  0  0  0
  9 10  1  0  0  0
  9 22  1  0  0  0
 10 11  2  0  0  0
 10 21  1  0  0  0
 11 12  1  0  0  0
 11 14  1  0  0  0
 12 13  1  0  0  0
 13 35  1  0  0  0
 35 36  1  0  0  0
 36 37  1  0  0  0
 14 15  1  0  0  0
 15 16  1  0  0  0
 16 17  2  0  0  0
 16 21  1  0  0  0
 17 18  1  0  0  0
 18 19  1  0  0  0
 18 20  1  0  0  0
 20 21  2  0  0  0
 22 23  2  0  0  0
 22 24  1  0  0  0
 24 25  1  0  0  0
 24 26  1  0  0  0
M  END
> <minimizedAffinity>
-4.21028

$$$$
