CHEMBL4582195


 30 32  0  0  0  0  0  0  0  0999 V2000
  -29.3020   -3.7725   -6.9452 C   0  0  0  0  0  0  0  0  0  0  0  0
  -29.2558   -2.7140   -6.0365 C   0  0  0  0  0  0  0  0  0  0  0  0
  -28.5733   -1.5409   -6.3418 C   0  0  0  0  0  0  0  0  0  0  0  0
  -27.8770   -1.4292   -7.5381 C   0  0  0  0  0  0  0  0  0  0  0  0
  -27.8124   -2.4984   -8.4321 C   0  0  0  0  0  0  0  0  0  0  0  0
  -28.5727   -3.6543   -8.1533 C   0  0  0  0  0  0  0  0  0  0  0  0
  -28.5910   -6.1286   -5.2769 O   0  0  0  0  0  0  0  0  0  0  0  0
  -29.6407   -6.0505   -5.9194 C   0  0  0  0  0  0  0  0  0  0  0  0
  -30.0367   -4.9624   -6.6915 N   0  0  0  0  0  0  0  0  0  0  0  0
  -30.9439   -5.0445   -7.1347 H   0  0  0  0  0  0  0  0  0  0  0  0
  -30.6322   -7.2117   -5.8268 C   0  0  0  0  0  0  0  0  0  0  0  0
  -31.0034   -8.0030   -7.4221 S   0  0  0  0  0  0  0  0  0  0  0  0
  -29.6230   -9.1122   -7.5039 C   0  0  0  0  0  0  0  0  0  0  0  0
  -29.1597   -9.9413   -6.1171 S   0  0  0  0  0  0  0  0  0  0  0  0
  -29.0107   -9.2488   -8.7540 N   0  0  0  0  0  0  0  0  0  0  0  0
  -29.6649   -9.8773   -9.9092 C   0  0  0  0  0  0  0  0  0  0  0  0
  -28.7277  -10.8564  -10.6176 C   0  0  0  0  0  0  0  0  0  0  0  0
  -27.4033  -10.2012  -10.9930 C   0  0  0  0  0  0  0  0  0  0  0  0
  -26.7543   -9.5644   -9.7691 C   0  0  0  0  0  0  0  0  0  0  0  0
  -27.7164   -8.6146   -9.0598 C   0  0  0  0  0  0  0  0  0  0  0  0
  -26.9788   -2.4492   -9.5813 N   0  0  0  0  0  0  0  0  0  0  0  0
  -27.2068   -1.6637  -10.7094 C   0  0  0  0  0  0  0  0  0  0  0  0
  -28.1731   -0.9253  -10.9022 O   0  0  0  0  0  0  0  0  0  0  0  0
  -26.0690   -2.9021   -9.5514 H   0  0  0  0  0  0  0  0  0  0  0  0
  -26.1365   -1.6970  -11.7560 C   0  0  0  0  0  0  0  0  0  0  0  0
  -26.4995   -1.6640  -13.0977 C   0  0  0  0  0  0  0  0  0  0  0  0
  -25.4944   -1.6545  -14.0600 C   0  0  0  0  0  0  0  0  0  0  0  0
  -24.1697   -1.6830  -13.6468 C   0  0  0  0  0  0  0  0  0  0  0  0
  -23.8981   -1.7228  -12.2852 C   0  0  0  0  0  0  0  0  0  0  0  0
  -24.8475   -1.7269  -11.3155 N   0  0  0  0  0  0  0  0  0  0  0  0
  7  8  2  0  0  0
  8 11  1  0  0  0
  8  9  1  0  0  0
 11 12  1  0  0  0
 12 13  1  0  0  0
 13 14  2  0  0  0
 13 15  1  0  0  0
 15 16  1  0  0  0
 15 20  1  0  0  0
 16 17  1  0  0  0
 17 18  1  0  0  0
 18 19  1  0  0  0
 19 20  1  0  0  0
  9  1  1  0  0  0
  9 10  1  0  0  0
  1  2  1  0  0  0
  1  6  2  0  0  0
  2  3  2  0  0  0
  3  4  1  0  0  0
  4  5  2  0  0  0
  5 21  1  0  0  0
  5  6  1  0  0  0
 21 22  1  0  0  0
 21 24  1  0  0  0
 22 23  2  0  0  0
 22 25  1  0  0  0
 25 26  1  0  0  0
 25 30  2  0  0  0
 26 27  2  0  0  0
 27 28  1  0  0  0
 28 29  2  0  0  0
 29 30  1  0  0  0
M  END
> <minimizedAffinity>
-8.61813

$$$$
