CHEMBL2063328


 42 46  0  0  0  0  0  0  0  0999 V2000
  -24.9244   -1.1250  -11.7551 C   0  0  0  0  0  0  0  0  0  0  0  0
  -23.8598   -0.2618  -11.8185 C   0  0  0  0  0  0  0  0  0  0  0  0
  -23.5913   -0.0480  -13.1993 C   0  0  0  0  0  0  0  0  0  0  0  0
  -24.4606   -0.7482  -13.9489 N   0  0  0  0  0  0  0  0  0  0  0  0
  -25.2279   -1.4001  -13.0610 N   0  0  0  0  0  0  0  0  0  0  0  0
  -25.9613   -1.9968  -13.4257 H   0  0  0  0  0  0  0  0  0  0  0  0
  -22.5370    0.7941  -13.7796 C   0  0  0  0  0  0  0  0  0  0  0  0
  -21.4103    0.2215  -14.3840 C   0  0  0  0  0  0  0  0  0  0  0  0
  -20.4006    1.0212  -14.9317 C   0  0  0  0  0  0  0  0  0  0  0  0
  -20.4855    2.4161  -14.8734 C   0  0  0  0  0  0  0  0  0  0  0  0
  -21.6165    2.9945  -14.2902 C   0  0  0  0  0  0  0  0  0  0  0  0
  -22.6285    2.1925  -13.7447 C   0  0  0  0  0  0  0  0  0  0  0  0
  -19.3703    3.2622  -15.4318 C   0  0  0  0  0  0  0  0  0  0  0  0
  -18.1599    2.5128  -15.6431 N   0  0  0  0  0  0  0  0  0  0  0  0
  -16.9633    3.1057  -15.8983 C   0  0  0  0  0  0  0  0  0  0  0  0
  -16.7715    4.3113  -15.9334 O   0  0  0  0  0  0  0  0  0  0  0  0
  -18.1691    1.5049  -15.6063 H   0  0  0  0  0  0  0  0  0  0  0  0
  -16.0303    2.1531  -16.1306 O   0  0  0  0  0  0  0  0  0  0  0  0
  -14.9274    2.1220  -15.2161 C   0  0  0  0  0  0  0  0  0  0  0  0
  -14.9090    0.7922  -14.5232 C   0  0  0  0  0  0  0  0  0  0  0  0
  -15.6935    0.5344  -13.3962 C   0  0  0  0  0  0  0  0  0  0  0  0
  -15.6348   -0.7161  -12.7879 C   0  0  0  0  0  0  0  0  0  0  0  0
  -14.7837   -1.6680  -13.3246 C   0  0  0  0  0  0  0  0  0  0  0  0
  -14.0022   -1.4529  -14.4041 N   0  0  0  0  0  0  0  0  0  0  0  0
  -14.0793   -0.2290  -14.9749 C   0  0  0  0  0  0  0  0  0  0  0  0
  -26.9923   -1.5940  -10.4628 C   0  0  0  0  0  0  0  0  0  0  0  0
  -27.7183   -1.1139  -11.3182 O   0  0  0  0  0  0  0  0  0  0  0  0
  -25.5610   -1.6416  -10.6315 N   0  0  0  0  0  0  0  0  0  0  0  0
  -24.9861   -2.0463   -9.9073 H   0  0  0  0  0  0  0  0  0  0  0  0
  -28.6481   -3.3103   -6.8718 C   0  0  0  0  0  0  0  0  0  0  0  0
  -28.2915   -1.9515   -6.9241 C   0  0  0  0  0  0  0  0  0  0  0  0
  -27.7521   -1.3629   -8.0725 C   0  0  0  0  0  0  0  0  0  0  0  0
  -27.5607   -2.1398   -9.2121 C   0  0  0  0  0  0  0  0  0  0  0  0
  -27.8914   -3.4994   -9.1823 C   0  0  0  0  0  0  0  0  0  0  0  0
  -28.4358   -4.0698   -8.0267 C   0  0  0  0  0  0  0  0  0  0  0  0
  -32.0451   -5.0513   -2.8131 C   0  0  0  0  0  0  0  0  0  0  0  0
  -30.7631   -4.7763   -3.4576 N   0  0  0  0  0  0  0  0  0  0  0  0
  -30.6230   -5.5704   -4.7007 C   0  0  0  0  0  0  0  0  0  0  0  0
  -29.3079   -5.2681   -5.4629 C   0  0  0  0  0  0  0  0  0  0  0  0
  -29.2365   -3.8229   -5.7360 N   0  0  0  0  0  0  0  0  0  0  0  0
  -29.3255   -3.0037   -4.5123 C   0  0  0  0  0  0  0  0  0  0  0  0
  -30.6417   -3.3349   -3.7739 C   0  0  0  0  0  0  0  0  0  0  0  0
 36 37  1  0  0  0
 37 38  1  0  0  0
 37 42  1  0  0  0
 38 39  1  0  0  0
 39 40  1  0  0  0
 40 30  1  0  0  0
 40 41  1  0  0  0
 30 31  1  0  0  0
 30 35  2  0  0  0
 31 32  2  0  0  0
 32 33  1  0  0  0
 33 26  1  0  0  0
 33 34  2  0  0  0
 26 27  2  0  0  0
 26 28  1  0  0  0
 28  1  1  0  0  0
 28 29  1  0  0  0
  1  2  2  0  0  0
  1  5  1  0  0  0
  2  3  1  0  0  0
  3  7  1  0  0  0
  3  4  2  0  0  0
  7  8  1  0  0  0
  7 12  2  0  0  0
  8  9  2  0  0  0
  9 10  1  0  0  0
 10 13  1  0  0  0
 10 11  2  0  0  0
 13 14  1  0  0  0
 14 15  1  0  0  0
 14 17  1  0  0  0
 15 16  2  0  0  0
 15 18  1  0  0  0
 18 19  1  0  0  0
 19 20  1  0  0  0
 20 21  1  0  0  0
 20 25  2  0  0  0
 21 22  2  0  0  0
 22 23  1  0  0  0
 23 24  2  0  0  0
 24 25  1  0  0  0
 11 12  1  0  0  0
  4  5  1  0  0  0
  5  6  1  0  0  0
 34 35  1  0  0  0
 41 42  1  0  0  0
M  END
> <minimizedAffinity>
-10.92639

$$$$
