CHEMBL3926556


 36 39  0  0  0  0  0  0  0  0999 V2000
  -29.9358   -6.5903   -5.3961 N   0  0  0  0  0  0  0  0  0  0  0  0
  -29.1542   -5.5349   -5.9345 C   0  0  0  0  0  0  0  0  0  0  0  0
  -28.8866   -5.8361   -7.1995 C   0  0  0  0  0  0  0  0  0  0  0  0
  -28.5070   -4.9342   -7.9560 C   0  0  0  0  0  0  0  0  0  0  0  0
  -28.2800   -3.7589   -7.5737 C   0  0  0  0  0  0  0  0  0  0  0  0
  -27.8484   -3.2729   -8.4673 N   0  0  0  0  0  0  0  0  0  0  0  0
  -27.4141   -2.8401   -9.3845 C   0  0  0  0  0  0  0  0  0  0  0  0
  -27.2649   -1.6016   -9.2256 C   0  0  0  0  0  0  0  0  0  0  0  0
  -27.7024   -1.4864   -7.4414 N   0  0  0  0  0  0  0  0  0  0  0  0
  -28.2728   -2.9423   -6.5919 C   0  0  0  0  0  0  0  0  0  0  0  0
  -28.8105   -4.1049   -5.3982 C   0  0  0  0  0  0  0  0  0  0  0  0
  -26.6248   -1.2974  -11.0965 C   0  0  0  0  0  0  0  0  0  0  0  0
  -27.4586   -1.6740  -12.2767 C   0  0  0  0  0  0  0  0  0  0  0  0
  -26.7752   -1.6632  -13.4810 N   0  0  0  0  0  0  0  0  0  0  0  0
  -25.5217   -1.3210  -13.2525 N   0  0  0  0  0  0  0  0  0  0  0  0
  -25.3605   -1.1116  -11.8655 C   0  0  0  0  0  0  0  0  0  0  0  0
  -24.4759   -1.2226  -14.3417 C   0  0  0  0  0  0  0  0  0  0  0  0
  -25.1270   -0.9448  -15.7012 C   0  0  0  0  0  0  0  0  0  0  0  0
  -23.5343   -0.0731  -14.0233 C   0  0  0  0  0  0  0  0  0  0  0  0
  -29.4223   -7.9684   -5.5501 C   0  0  0  0  0  0  0  0  0  0  0  0
  -28.4019   -8.1470   -4.9480 C   0  0  0  0  0  0  0  0  0  0  0  0
  -27.2292   -9.3341   -4.9704 C   0  0  0  0  0  0  0  0  0  0  0  0
  -27.8752  -10.4339   -5.3543 C   0  0  0  0  0  0  0  0  0  0  0  0
  -29.2054  -10.3391   -5.8774 C   0  0  0  0  0  0  0  0  0  0  0  0
  -29.8657   -9.0686   -6.0916 C   0  0  0  0  0  0  0  0  0  0  0  0
  -25.7719   -9.4659   -4.2929 O   0  0  0  0  0  0  0  0  0  0  0  0
  -24.2315   -9.7120   -4.7926 C   0  0  0  0  0  0  0  0  0  0  0  0
  -29.8363  -11.4552   -6.1828 O   0  0  0  0  0  0  0  0  0  0  0  0
  -31.2067  -11.4909   -6.1231 C   0  0  0  0  0  0  0  0  0  0  0  0
  -31.3680   -6.3618   -4.9123 C   0  0  0  0  0  0  0  0  0  0  0  0
  -31.5108   -5.8954   -3.4391 C   0  0  0  0  0  0  0  0  0  0  0  0
  -30.2533   -6.0942   -2.8831 O   0  0  0  0  0  0  0  0  0  0  0  0
  -29.6759   -5.3213   -3.1467 H   0  0  0  0  0  0  0  0  0  0  0  0
  -31.8212   -4.3611   -3.1815 C   0  0  0  0  0  0  0  0  0  0  0  0
  -29.7157   -2.7253   -2.4462 C   0  0  0  0  0  0  0  0  0  0  0  0
  -31.0352   -3.2365   -2.9521 O   0  0  0  0  0  0  0  0  0  0  0  0
 35 36  1  0  0  0
 36 34  1  0  0  0
 31 30  1  0  0  0
 31 32  1  0  0  0
 31 34  1  0  0  0
 32 33  1  0  0  0
 30  1  1  0  0  0
  1 20  1  0  0  0
  1  2  1  0  0  0
 20 21  1  0  0  0
 20 25  2  0  0  0
 21 22  2  0  0  0
 22 26  1  0  0  0
 22 23  1  0  0  0
 26 27  1  0  0  0
 23 24  2  0  0  0
 24 28  1  0  0  0
 24 25  1  0  0  0
 28 29  1  0  0  0
  2  3  1  0  0  0
  2 11  2  0  0  0
  3  4  2  0  0  0
  4  5  1  0  0  0
  5  6  1  0  0  0
  5 10  2  0  0  0
  6  7  2  0  0  0
  7  8  1  0  0  0
  8 12  1  0  0  0
  8  9  2  0  0  0
 12 13  1  0  0  0
 12 16  2  0  0  0
 13 14  2  0  0  0
 14 15  1  0  0  0
 15 17  1  0  0  0
 15 16  1  0  0  0
 17 18  1  0  0  0
 17 19  1  0  0  0
  9 10  1  0  0  0
 10 11  1  0  0  0
M  END
> <minimizedAffinity>
-8.63020

$$$$
