CHEMBL3948623


 38 42  0  0  0  0  0  0  0  0999 V2000
  -20.9730    1.8649  -14.3086 C   0  0  0  0  0  0  0  0  0  0  0  0
  -20.9757    3.1344  -14.8646 C   0  0  0  0  0  0  0  0  0  0  0  0
  -19.8604    3.7246  -15.3518 N   0  0  0  0  0  0  0  0  0  0  0  0
  -18.7281    3.0028  -15.2856 C   0  0  0  0  0  0  0  0  0  0  0  0
  -17.5600    3.5380  -15.7903 C   0  0  0  0  0  0  0  0  0  0  0  0
  -16.3635    2.8145  -15.7715 C   0  0  0  0  0  0  0  0  0  0  0  0
  -16.2951    1.5047  -15.2779 C   0  0  0  0  0  0  0  0  0  0  0  0
  -17.4904    0.9972  -14.7270 C   0  0  0  0  0  0  0  0  0  0  0  0
  -18.6991    1.7070  -14.7242 C   0  0  0  0  0  0  0  0  0  0  0  0
  -19.8243    1.1447  -14.2225 N   0  0  0  0  0  0  0  0  0  0  0  0
  -23.6946   -0.2956  -13.2666 N   0  0  0  0  0  0  0  0  0  0  0  0
  -22.4856   -0.1254  -13.8987 C   0  0  0  0  0  0  0  0  0  0  0  0
  -22.1780    1.2198  -13.8217 C   0  0  0  0  0  0  0  0  0  0  0  0
  -23.2823    1.7778  -13.1443 C   0  0  0  0  0  0  0  0  0  0  0  0
  -24.2150    0.8733  -12.8345 N   0  0  0  0  0  0  0  0  0  0  0  0
  -24.4092   -1.5652  -13.0539 C   0  0  0  0  0  0  0  0  0  0  0  0
  -23.4536   -2.7516  -12.7982 C   0  0  0  0  0  0  0  0  0  0  0  0
  -25.2359   -1.9024  -14.3136 C   0  0  0  0  0  0  0  0  0  0  0  0
  -27.6738   -1.1087  -11.0983 C   0  0  0  0  0  0  0  0  0  0  0  0
  -26.6867   -1.2084  -12.1448 N   0  0  0  0  0  0  0  0  0  0  0  0
  -25.3509   -1.4093  -11.8465 C   0  0  0  0  0  0  0  0  0  0  0  0
  -24.9566   -1.4619  -10.6798 O   0  0  0  0  0  0  0  0  0  0  0  0
  -27.0049   -1.3034  -13.1051 H   0  0  0  0  0  0  0  0  0  0  0  0
  -15.0867    0.7563  -15.3702 N   0  0  0  0  0  0  0  0  0  0  0  0
  -14.6925   -0.3380  -14.5293 C   0  0  0  0  0  0  0  0  0  0  0  0
  -13.6955   -1.2557  -14.9128 C   0  0  0  0  0  0  0  0  0  0  0  0
  -13.4027   -2.4073  -14.1798 C   0  0  0  0  0  0  0  0  0  0  0  0
  -14.0712   -2.6372  -12.9826 C   0  0  0  0  0  0  0  0  0  0  0  0
  -14.9914   -1.7043  -12.5131 C   0  0  0  0  0  0  0  0  0  0  0  0
  -15.2940   -0.5733  -13.2836 C   0  0  0  0  0  0  0  0  0  0  0  0
  -12.5011   -3.3701  -14.5505 O   0  0  0  0  0  0  0  0  0  0  0  0
  -12.9377   -4.7242  -14.4548 C   0  0  0  0  0  0  0  0  0  0  0  0
  -15.6919   -1.8160  -11.3411 O   0  0  0  0  0  0  0  0  0  0  0  0
  -15.7446   -3.1278  -10.7905 C   0  0  0  0  0  0  0  0  0  0  0  0
  -14.1333    1.1022  -16.4489 C   0  0  0  0  0  0  0  0  0  0  0  0
  -14.5356    0.6659  -17.8441 C   0  0  0  0  0  0  0  0  0  0  0  0
  -13.6931   -0.3167  -18.6200 C   0  0  0  0  0  0  0  0  0  0  0  0
  -13.8587    1.0782  -19.1384 C   0  0  0  0  0  0  0  0  0  0  0  0
 19 20  1  0  0  0
 20 21  1  0  0  0
 20 23  1  0  0  0
 21 22  2  0  0  0
 21 16  1  0  0  0
 16 17  1  0  0  0
 16 18  1  0  0  0
 16 11  1  0  0  0
 11 12  1  0  0  0
 11 15  1  0  0  0
 12 13  2  0  0  0
 13  1  1  0  0  0
 13 14  1  0  0  0
  1  2  1  0  0  0
  1 10  2  0  0  0
  2  3  2  0  0  0
  3  4  1  0  0  0
  4  5  1  0  0  0
  4  9  2  0  0  0
  5  6  2  0  0  0
  6  7  1  0  0  0
  7 24  1  0  0  0
  7  8  2  0  0  0
 24 35  1  0  0  0
 24 25  1  0  0  0
 35 36  1  0  0  0
 36 37  1  0  0  0
 36 38  1  0  0  0
 37 38  1  0  0  0
 25 26  1  0  0  0
 25 30  2  0  0  0
 26 27  2  0  0  0
 27 31  1  0  0  0
 27 28  1  0  0  0
 31 32  1  0  0  0
 28 29  2  0  0  0
 29 33  1  0  0  0
 29 30  1  0  0  0
 33 34  1  0  0  0
  8  9  1  0  0  0
  9 10  1  0  0  0
 14 15  2  0  0  0
M  END
> <minimizedAffinity>
-9.05666

$$$$
