CHEMBL1242379


 26 28  0  0  0  0  0  0  0  0999 V2000
  -29.5343   -4.7892   -6.3320 C   0  0  0  0  0  0  0  0  0  0  0  0
  -28.8923   -3.7258   -6.8470 N   0  0  0  0  0  0  0  0  0  0  0  0
  -29.0245   -2.7521   -5.9186 N   0  0  0  0  0  0  0  0  0  0  0  0
  -29.7893   -3.1465   -4.8474 C   0  0  0  0  0  0  0  0  0  0  0  0
  -30.1212   -2.4036   -3.7766 N   0  0  0  0  0  0  0  0  0  0  0  0
  -30.8757   -3.0908   -2.9086 C   0  0  0  0  0  0  0  0  0  0  0  0
  -31.3068   -4.3592   -3.0151 N   0  0  0  0  0  0  0  0  0  0  0  0
  -30.9580   -5.0721   -4.1050 C   0  0  0  0  0  0  0  0  0  0  0  0
  -31.4508   -6.3669   -4.1521 N   0  0  0  0  0  0  0  0  0  0  0  0
  -30.1522   -4.4644   -5.0838 C   0  0  0  0  0  0  0  0  0  0  0  0
  -32.1658   -6.5146   -3.4495 H   0  0  0  0  0  0  0  0  0  0  0  0
  -31.6506   -6.7397   -5.0710 H   0  0  0  0  0  0  0  0  0  0  0  0
  -29.5050   -8.4891   -8.5174 C   0  0  0  0  0  0  0  0  0  0  0  0
  -28.3696   -7.6694   -8.4824 C   0  0  0  0  0  0  0  0  0  0  0  0
  -28.3812   -6.4630   -7.7655 C   0  0  0  0  0  0  0  0  0  0  0  0
  -29.5228   -6.0568   -7.0675 C   0  0  0  0  0  0  0  0  0  0  0  0
  -30.6385   -6.8947   -7.0783 C   0  0  0  0  0  0  0  0  0  0  0  0
  -30.6503   -8.0849   -7.8159 C   0  0  0  0  0  0  0  0  0  0  0  0
  -28.4179   -9.9398  -10.0406 C   0  0  0  0  0  0  0  0  0  0  0  0
  -29.5739   -9.6292   -9.2711 O   0  0  0  0  0  0  0  0  0  0  0  0
  -31.8712   -8.7079   -7.8171 O   0  0  0  0  0  0  0  0  0  0  0  0
  -32.8548   -8.1335   -6.9660 C   0  0  0  0  0  0  0  0  0  0  0  0
  -28.3743   -1.4430   -6.1240 C   0  0  0  0  0  0  0  0  0  0  0  0
  -29.3724   -0.2742   -5.9309 C   0  0  0  0  0  0  0  0  0  0  0  0
  -27.2322   -1.2470   -5.1089 C   0  0  0  0  0  0  0  0  0  0  0  0
  -27.8209   -1.3362   -7.5590 C   0  0  0  0  0  0  0  0  0  0  0  0
 19 20  1  0  0  0
 20 13  1  0  0  0
 13 14  1  0  0  0
 13 18  2  0  0  0
 14 15  2  0  0  0
 15 16  1  0  0  0
 16  1  1  0  0  0
 16 17  2  0  0  0
  1  2  2  0  0  0
  1 10  1  0  0  0
  2  3  1  0  0  0
  3 23  1  0  0  0
  3  4  1  0  0  0
 23 24  1  0  0  0
 23 25  1  0  0  0
 23 26  1  0  0  0
  4  5  1  0  0  0
  4 10  2  0  0  0
  5  6  2  0  0  0
  6  7  1  0  0  0
  7  8  2  0  0  0
  8  9  1  0  0  0
  8 10  1  0  0  0
  9 11  1  0  0  0
  9 12  1  0  0  0
 17 18  1  0  0  0
 18 21  1  0  0  0
 21 22  1  0  0  0
M  END
> <minimizedAffinity>
-7.92757

$$$$
