CHEMBL316671


 29 33  0  0  0  0  0  0  0  0999 V2000
  -29.8030   -8.8820   -8.7516 C   0  0  0  0  0  0  0  0  0  0  0  0
  -28.9930  -10.0028   -8.6129 C   0  0  0  0  0  0  0  0  0  0  0  0
  -28.1765  -10.1667   -7.4898 C   0  0  0  0  0  0  0  0  0  0  0  0
  -28.2117   -9.1810   -6.4887 C   0  0  0  0  0  0  0  0  0  0  0  0
  -29.0357   -8.0505   -6.5936 C   0  0  0  0  0  0  0  0  0  0  0  0
  -29.8189   -7.8977   -7.7607 C   0  0  0  0  0  0  0  0  0  0  0  0
  -28.8641   -7.2767   -5.3984 C   0  0  0  0  0  0  0  0  0  0  0  0
  -27.9443   -7.9485   -4.6199 C   0  0  0  0  0  0  0  0  0  0  0  0
  -27.5367   -9.0729   -5.2891 N   0  0  0  0  0  0  0  0  0  0  0  0
  -29.5007   -6.0419   -4.9650 C   0  0  0  0  0  0  0  0  0  0  0  0
  -30.5282   -6.0393   -4.0265 C   0  0  0  0  0  0  0  0  0  0  0  0
  -31.1617   -4.9250   -3.5872 N   0  0  0  0  0  0  0  0  0  0  0  0
  -30.7279   -3.7471   -4.0945 C   0  0  0  0  0  0  0  0  0  0  0  0
  -29.6936   -3.6192   -5.0173 C   0  0  0  0  0  0  0  0  0  0  0  0
  -29.0853   -4.7971   -5.4566 C   0  0  0  0  0  0  0  0  0  0  0  0
  -29.2498   -2.3049   -5.4741 C   0  0  0  0  0  0  0  0  0  0  0  0
  -29.6917   -1.0289   -4.9911 C   0  0  0  0  0  0  0  0  0  0  0  0
  -29.0681    0.0262   -5.6212 C   0  0  0  0  0  0  0  0  0  0  0  0
  -27.9468   -0.5019   -6.7949 S   0  0  0  0  0  0  0  0  0  0  0  0
  -28.2975   -2.1457   -6.4651 C   0  0  0  0  0  0  0  0  0  0  0  0
  -26.5819  -10.0203   -4.7367 C   0  0  0  0  0  0  0  0  0  0  0  0
  -25.2000   -9.4250   -4.4599 C   0  0  0  0  0  0  0  0  0  0  0  0
  -24.1983  -10.3794   -3.7847 C   0  0  0  0  0  0  0  0  0  0  0  0
  -23.0012  -10.7035   -4.5853 N   0  0  0  0  0  0  0  0  0  0  0  0
  -22.7114  -12.1470   -4.5840 C   0  0  0  0  0  0  0  0  0  0  0  0
  -21.4515  -12.4656   -5.3902 C   0  0  0  0  0  0  0  0  0  0  0  0
  -21.5715  -11.9668   -6.8230 C   0  0  0  0  0  0  0  0  0  0  0  0
  -21.9449  -10.4900   -6.8341 C   0  0  0  0  0  0  0  0  0  0  0  0
  -23.1795  -10.2187   -5.9697 C   0  0  0  0  0  0  0  0  0  0  0  0
  1  2  1  0  0  0
  1  6  2  0  0  0
  2  3  2  0  0  0
  3  4  1  0  0  0
  4  5  2  0  0  0
  4  9  1  0  0  0
  5  6  1  0  0  0
  5  7  1  0  0  0
  7 10  1  0  0  0
  7  8  2  0  0  0
 10 11  1  0  0  0
 10 15  2  0  0  0
 11 12  2  0  0  0
 12 13  1  0  0  0
 13 14  2  0  0  0
 14 16  1  0  0  0
 14 15  1  0  0  0
 16 17  1  0  0  0
 16 20  2  0  0  0
 17 18  2  0  0  0
 18 19  1  0  0  0
 19 20  1  0  0  0
  8  9  1  0  0  0
  9 21  1  0  0  0
 21 22  1  0  0  0
 22 23  1  0  0  0
 23 24  1  0  0  0
 24 25  1  0  0  0
 24 29  1  0  0  0
 25 26  1  0  0  0
 26 27  1  0  0  0
 27 28  1  0  0  0
 28 29  1  0  0  0
M  END
> <minimizedAffinity>
-8.32248

$$$$
