CHEMBL3760090


 42 46  0  0  0  0  0  0  0  0999 V2000
  -29.2293   -5.5908   -7.2493 C   0  0  0  0  0  0  0  0  0  0  0  0
  -28.5618   -4.6523   -8.0469 C   0  0  0  0  0  0  0  0  0  0  0  0
  -28.3822   -3.3153   -7.6177 C   0  0  0  0  0  0  0  0  0  0  0  0
  -27.9319   -2.2548   -8.4216 C   0  0  0  0  0  0  0  0  0  0  0  0
  -27.7961   -1.0038   -7.9414 N   0  0  0  0  0  0  0  0  0  0  0  0
  -28.1125   -0.8072   -6.6618 C   0  0  0  0  0  0  0  0  0  0  0  0
  -28.5727   -1.7340   -5.8207 N   0  0  0  0  0  0  0  0  0  0  0  0
  -28.7282   -2.9619   -6.3150 C   0  0  0  0  0  0  0  0  0  0  0  0
  -29.3004   -3.9221   -5.5014 C   0  0  0  0  0  0  0  0  0  0  0  0
  -29.6291   -5.2114   -5.9568 C   0  0  0  0  0  0  0  0  0  0  0  0
  -28.5051   -7.5738   -8.3574 C   0  0  0  0  0  0  0  0  0  0  0  0
  -29.5431   -6.8520   -7.6896 O   0  0  0  0  0  0  0  0  0  0  0  0
  -27.6746   -2.4945   -9.7987 N   0  0  0  0  0  0  0  0  0  0  0  0
  -27.6936   -3.4934   -9.9725 H   0  0  0  0  0  0  0  0  0  0  0  0
  -26.6960   -1.8390  -10.5740 C   0  0  0  0  0  0  0  0  0  0  0  0
  -25.3814   -2.3014  -10.5620 C   0  0  0  0  0  0  0  0  0  0  0  0
  -24.3768   -1.6069  -11.2450 C   0  0  0  0  0  0  0  0  0  0  0  0
  -24.6650   -0.4550  -11.9789 C   0  0  0  0  0  0  0  0  0  0  0  0
  -26.0002   -0.0588  -12.0912 C   0  0  0  0  0  0  0  0  0  0  0  0
  -27.0036   -0.7533  -11.4028 C   0  0  0  0  0  0  0  0  0  0  0  0
  -23.6784    0.3627  -12.5812 N   0  0  0  0  0  0  0  0  0  0  0  0
  -23.2573    0.2804  -13.8973 C   0  0  0  0  0  0  0  0  0  0  0  0
  -23.7612   -0.4160  -14.7720 O   0  0  0  0  0  0  0  0  0  0  0  0
  -23.2383    1.0407  -11.9755 H   0  0  0  0  0  0  0  0  0  0  0  0
  -22.0867    1.1123  -14.2999 C   0  0  0  0  0  0  0  0  0  0  0  0
  -22.0273    2.5049  -14.1429 C   0  0  0  0  0  0  0  0  0  0  0  0
  -20.8481    3.1886  -14.4623 C   0  0  0  0  0  0  0  0  0  0  0  0
  -19.7337    2.4914  -14.9368 C   0  0  0  0  0  0  0  0  0  0  0  0
  -18.2753    3.3335  -15.2865 Cl  0  0  0  0  0  0  0  0  0  0  0  0
  -19.7829    1.1103  -15.0960 C   0  0  0  0  0  0  0  0  0  0  0  0
  -20.9564    0.4272  -14.7825 C   0  0  0  0  0  0  0  0  0  0  0  0
  -30.3716   -6.0965   -5.1866 O   0  0  0  0  0  0  0  0  0  0  0  0
  -29.7059   -6.4880   -3.9702 C   0  0  0  0  0  0  0  0  0  0  0  0
  -29.0730   -7.8755   -4.0342 C   0  0  0  0  0  0  0  0  0  0  0  0
  -27.6366   -7.7988   -4.6045 C   0  0  0  0  0  0  0  0  0  0  0  0
  -26.8536   -9.0436   -4.4831 N   0  0  0  0  0  0  0  0  0  0  0  0
  -26.7126   -9.7557   -5.7671 C   0  0  0  0  0  0  0  0  0  0  0  0
  -25.8621  -11.0417   -5.6383 C   0  0  0  0  0  0  0  0  0  0  0  0
  -24.5166  -10.8458   -5.0681 N   0  0  0  0  0  0  0  0  0  0  0  0
  -23.6118  -10.2123   -6.0234 C   0  0  0  0  0  0  0  0  0  0  0  0
  -24.6345  -10.0663   -3.8195 C   0  0  0  0  0  0  0  0  0  0  0  0
  -25.5124   -8.7883   -3.9123 C   0  0  0  0  0  0  0  0  0  0  0  0
 11 12  1  0  0  0
 12  1  1  0  0  0
  1  2  1  0  0  0
  1 10  2  0  0  0
  2  3  2  0  0  0
  3  4  1  0  0  0
  3  8  1  0  0  0
  4 13  1  0  0  0
  4  5  2  0  0  0
 13 15  1  0  0  0
 13 14  1  0  0  0
 15 16  1  0  0  0
 15 20  2  0  0  0
 16 17  2  0  0  0
 17 18  1  0  0  0
 18 21  1  0  0  0
 18 19  2  0  0  0
 21 22  1  0  0  0
 21 24  1  0  0  0
 22 23  2  0  0  0
 22 25  1  0  0  0
 25 26  1  0  0  0
 25 31  2  0  0  0
 26 27  2  0  0  0
 27 28  1  0  0  0
 28 29  1  0  0  0
 28 30  2  0  0  0
 30 31  1  0  0  0
 19 20  1  0  0  0
  5  6  1  0  0  0
  6  7  2  0  0  0
  7  8  1  0  0  0
  8  9  2  0  0  0
  9 10  1  0  0  0
 10 32  1  0  0  0
 32 33  1  0  0  0
 33 34  1  0  0  0
 34 35  1  0  0  0
 35 36  1  0  0  0
 36 37  1  0  0  0
 36 42  1  0  0  0
 37 38  1  0  0  0
 38 39  1  0  0  0
 39 40  1  0  0  0
 39 41  1  0  0  0
 41 42  1  0  0  0
M  END
> <minimizedAffinity>
-9.75694

$$$$
