CHEMBL273048


 37 40  0  0  0  0  0  0  0  0999 V2000
  -25.0233   -1.7947  -12.4498 C   0  0  0  0  0  0  0  0  0  0  0  0
  -23.7581   -1.8500  -11.8631 C   0  0  0  0  0  0  0  0  0  0  0  0
  -22.6674   -1.2065  -12.4592 C   0  0  0  0  0  0  0  0  0  0  0  0
  -22.8031   -0.4971  -13.6640 C   0  0  0  0  0  0  0  0  0  0  0  0
  -24.0643   -0.5537  -14.2890 C   0  0  0  0  0  0  0  0  0  0  0  0
  -25.1658   -1.1841  -13.6905 C   0  0  0  0  0  0  0  0  0  0  0  0
  -21.6652    0.2502  -14.2483 C   0  0  0  0  0  0  0  0  0  0  0  0
  -20.5286   -0.4185  -14.7681 C   0  0  0  0  0  0  0  0  0  0  0  0
  -19.4594    0.2540  -15.3779 C   0  0  0  0  0  0  0  0  0  0  0  0
  -19.4949    1.6319  -15.5762 C   0  0  0  0  0  0  0  0  0  0  0  0
  -20.5899    2.2823  -14.9981 C   0  0  0  0  0  0  0  0  0  0  0  0
  -20.7834    3.6290  -15.0175 O   0  0  0  0  0  0  0  0  0  0  0  0
  -21.9100    3.9475  -14.2932 N   0  0  0  0  0  0  0  0  0  0  0  0
  -22.3856    2.7905  -13.8335 C   0  0  0  0  0  0  0  0  0  0  0  0
  -23.4255    2.7223  -12.9763 N   0  0  0  0  0  0  0  0  0  0  0  0
  -21.6347    1.6704  -14.3153 C   0  0  0  0  0  0  0  0  0  0  0  0
  -23.7030    3.5989  -12.5471 H   0  0  0  0  0  0  0  0  0  0  0  0
  -23.4732    1.9431  -12.3257 H   0  0  0  0  0  0  0  0  0  0  0  0
  -18.5505    2.3899  -16.1904 O   0  0  0  0  0  0  0  0  0  0  0  0
  -17.2028    2.3446  -15.7552 C   0  0  0  0  0  0  0  0  0  0  0  0
  -16.4906    1.3207  -16.2697 F   0  0  0  0  0  0  0  0  0  0  0  0
  -16.5903    3.4938  -16.1184 F   0  0  0  0  0  0  0  0  0  0  0  0
  -17.1739    2.2588  -14.4075 F   0  0  0  0  0  0  0  0  0  0  0  0
  -27.4787   -2.6383   -9.9159 N   0  0  0  0  0  0  0  0  0  0  0  0
  -26.3467   -2.0357  -10.4279 C   0  0  0  0  0  0  0  0  0  0  0  0
  -25.6003   -1.2915   -9.8104 O   0  0  0  0  0  0  0  0  0  0  0  0
  -26.1670   -2.3036  -11.7837 N   0  0  0  0  0  0  0  0  0  0  0  0
  -28.0730   -3.1150  -10.5766 H   0  0  0  0  0  0  0  0  0  0  0  0
  -27.0222   -2.3082  -12.3202 H   0  0  0  0  0  0  0  0  0  0  0  0
  -28.2775    0.3547   -6.0626 C   0  0  0  0  0  0  0  0  0  0  0  0
  -28.3242   -1.0159   -6.6734 C   0  0  0  0  0  0  0  0  0  0  0  0
  -28.7687   -2.1011   -5.9091 C   0  0  0  0  0  0  0  0  0  0  0  0
  -28.8512   -3.3631   -6.4838 C   0  0  0  0  0  0  0  0  0  0  0  0
  -28.4762   -3.5567   -7.8093 C   0  0  0  0  0  0  0  0  0  0  0  0
  -28.7205   -4.7732   -8.3123 F   0  0  0  0  0  0  0  0  0  0  0  0
  -27.9617   -2.5076   -8.5881 C   0  0  0  0  0  0  0  0  0  0  0  0
  -27.9264   -1.2256   -8.0128 C   0  0  0  0  0  0  0  0  0  0  0  0
 30 31  1  0  0  0
 31 32  1  0  0  0
 31 37  2  0  0  0
 32 33  2  0  0  0
 33 34  1  0  0  0
 34 35  1  0  0  0
 34 36  2  0  0  0
 36 24  1  0  0  0
 36 37  1  0  0  0
 24 25  1  0  0  0
 24 28  1  0  0  0
 25 26  2  0  0  0
 25 27  1  0  0  0
 27  1  1  0  0  0
 27 29  1  0  0  0
  1  2  1  0  0  0
  1  6  2  0  0  0
  2  3  2  0  0  0
  3  4  1  0  0  0
  4  7  1  0  0  0
  4  5  2  0  0  0
  7  8  1  0  0  0
  7 16  2  0  0  0
  8  9  2  0  0  0
  9 10  1  0  0  0
 10 19  1  0  0  0
 10 11  2  0  0  0
 19 20  1  0  0  0
 20 21  1  0  0  0
 20 22  1  0  0  0
 20 23  1  0  0  0
 11 12  1  0  0  0
 11 16  1  0  0  0
 12 13  1  0  0  0
 13 14  2  0  0  0
 14 15  1  0  0  0
 14 16  1  0  0  0
 15 17  1  0  0  0
 15 18  1  0  0  0
  5  6  1  0  0  0
M  END
> <minimizedAffinity>
-10.54115

$$$$
