CHEMBL3586058


 37 39  0  0  0  0  0  0  0  0999 V2000
  -23.0808    0.0847  -13.6155 C   0  0  0  0  0  0  0  0  0  0  0  0
  -23.5149    0.6200  -12.4008 C   0  0  0  0  0  0  0  0  0  0  0  0
  -24.6765    0.1881  -11.7759 C   0  0  0  0  0  0  0  0  0  0  0  0
  -25.4790   -0.8099  -12.3283 C   0  0  0  0  0  0  0  0  0  0  0  0
  -25.0615   -1.3712  -13.5420 C   0  0  0  0  0  0  0  0  0  0  0  0
  -23.8756   -0.9302  -14.1796 C   0  0  0  0  0  0  0  0  0  0  0  0
  -19.4655    1.6720  -15.2025 C   0  0  0  0  0  0  0  0  0  0  0  0
  -19.7880    0.3484  -15.4753 C   0  0  0  0  0  0  0  0  0  0  0  0
  -20.9898   -0.1583  -14.9875 C   0  0  0  0  0  0  0  0  0  0  0  0
  -21.8661    0.6496  -14.2440 C   0  0  0  0  0  0  0  0  0  0  0  0
  -21.4408    1.9608  -14.0387 C   0  0  0  0  0  0  0  0  0  0  0  0
  -20.2514    2.4754  -14.4589 N   0  0  0  0  0  0  0  0  0  0  0  0
  -17.0746    1.8553  -14.9766 C   0  0  0  0  0  0  0  0  0  0  0  0
  -17.0424    1.1572  -13.9676 O   0  0  0  0  0  0  0  0  0  0  0  0
  -18.2409    2.1932  -15.6348 N   0  0  0  0  0  0  0  0  0  0  0  0
  -18.1950    2.3115  -16.6332 H   0  0  0  0  0  0  0  0  0  0  0  0
  -15.4293    1.6318  -16.8629 C   0  0  0  0  0  0  0  0  0  0  0  0
  -15.7750    2.4342  -15.5929 C   0  0  0  0  0  0  0  0  0  0  0  0
  -14.6282    2.2742  -14.5853 C   0  0  0  0  0  0  0  0  0  0  0  0
  -15.9258    3.9128  -15.9828 C   0  0  0  0  0  0  0  0  0  0  0  0
  -26.6804   -1.2481  -11.6948 N   0  0  0  0  0  0  0  0  0  0  0  0
  -26.7923   -1.6009  -10.3617 C   0  0  0  0  0  0  0  0  0  0  0  0
  -25.8765   -1.5955   -9.5371 O   0  0  0  0  0  0  0  0  0  0  0  0
  -28.0746   -2.0181   -9.9993 N   0  0  0  0  0  0  0  0  0  0  0  0
  -27.5151   -1.2450  -12.2604 H   0  0  0  0  0  0  0  0  0  0  0  0
  -28.5699   -2.5178  -10.7281 H   0  0  0  0  0  0  0  0  0  0  0  0
  -28.3019   -2.4374   -8.6591 C   0  0  0  0  0  0  0  0  0  0  0  0
  -28.5997   -3.7721   -8.3892 C   0  0  0  0  0  0  0  0  0  0  0  0
  -28.7744   -4.1820   -7.0654 C   0  0  0  0  0  0  0  0  0  0  0  0
  -29.1131   -6.0042   -6.6775 Br  0  0  0  0  0  0  0  0  0  0  0  0
  -28.6718   -3.2754   -6.0103 C   0  0  0  0  0  0  0  0  0  0  0  0
  -28.3608   -1.9363   -6.2656 C   0  0  0  0  0  0  0  0  0  0  0  0
  -28.1898   -1.5258   -7.6049 C   0  0  0  0  0  0  0  0  0  0  0  0
  -28.1828   -0.9556   -5.1364 C   0  0  0  0  0  0  0  0  0  0  0  0
  -29.2805   -0.1779   -4.9262 F   0  0  0  0  0  0  0  0  0  0  0  0
  -27.9238   -1.5621   -3.9455 F   0  0  0  0  0  0  0  0  0  0  0  0
  -27.1513   -0.0942   -5.3502 F   0  0  0  0  0  0  0  0  0  0  0  0
 17 18  1  0  0  0
 18 19  1  0  0  0
 18 20  1  0  0  0
 18 13  1  0  0  0
 13 14  2  0  0  0
 13 15  1  0  0  0
 15  7  1  0  0  0
 15 16  1  0  0  0
  7  8  1  0  0  0
  7 12  2  0  0  0
  8  9  2  0  0  0
  9 10  1  0  0  0
 10  1  1  0  0  0
 10 11  2  0  0  0
  1  2  1  0  0  0
  1  6  2  0  0  0
  2  3  2  0  0  0
  3  4  1  0  0  0
  4 21  1  0  0  0
  4  5  2  0  0  0
 21 22  1  0  0  0
 21 25  1  0  0  0
 22 23  2  0  0  0
 22 24  1  0  0  0
 24 27  1  0  0  0
 24 26  1  0  0  0
 27 28  1  0  0  0
 27 33  2  0  0  0
 28 29  2  0  0  0
 29 30  1  0  0  0
 29 31  1  0  0  0
 31 32  2  0  0  0
 32 34  1  0  0  0
 32 33  1  0  0  0
 34 35  1  0  0  0
 34 36  1  0  0  0
 34 37  1  0  0  0
  5  6  1  0  0  0
 11 12  1  0  0  0
M  END
> <minimizedAffinity>
-11.03009

$$$$
