CHEMBL198155


 35 38  0  0  0  0  0  0  0  0999 V2000
  -17.5176    1.3259  -14.6986 C   0  0  0  0  0  0  0  0  0  0  0  0
  -18.3596    2.3433  -14.2547 C   0  0  0  0  0  0  0  0  0  0  0  0
  -19.7466    2.1892  -14.2538 C   0  0  0  0  0  0  0  0  0  0  0  0
  -20.3536    1.0887  -14.8528 C   0  0  0  0  0  0  0  0  0  0  0  0
  -19.5265    0.1392  -15.4559 C   0  0  0  0  0  0  0  0  0  0  0  0
  -18.1243    0.2355  -15.3409 C   0  0  0  0  0  0  0  0  0  0  0  0
  -15.4174    0.6438  -13.4734 C   0  0  0  0  0  0  0  0  0  0  0  0
  -13.7283    0.9421  -13.4468 S   0  0  0  0  0  0  0  0  0  0  0  0
  -13.8130    2.0489  -14.7211 C   0  0  0  0  0  0  0  0  0  0  0  0
  -12.6751    2.5949  -15.1829 N   0  0  0  0  0  0  0  0  0  0  0  0
  -12.8842    3.4325  -16.1933 C   0  0  0  0  0  0  0  0  0  0  0  0
  -14.0599    3.7748  -16.7257 N   0  0  0  0  0  0  0  0  0  0  0  0
  -15.1851    3.2260  -16.2263 C   0  0  0  0  0  0  0  0  0  0  0  0
  -16.3449    3.6691  -16.8446 N   0  0  0  0  0  0  0  0  0  0  0  0
  -15.1037    2.2780  -15.1719 C   0  0  0  0  0  0  0  0  0  0  0  0
  -16.0646    1.4266  -14.4354 C   0  0  0  0  0  0  0  0  0  0  0  0
  -16.1590    4.4580  -17.4516 H   0  0  0  0  0  0  0  0  0  0  0  0
  -17.1551    3.7525  -16.2461 H   0  0  0  0  0  0  0  0  0  0  0  0
  -15.9210   -0.4165  -12.5200 C   0  0  0  0  0  0  0  0  0  0  0  0
  -15.5060   -1.8192  -12.9612 C   0  0  0  0  0  0  0  0  0  0  0  0
  -16.1965   -3.5869  -11.5983 C   0  0  0  0  0  0  0  0  0  0  0  0
  -15.1796   -2.6136  -11.8217 O   0  0  0  0  0  0  0  0  0  0  0  0
  -21.7512    0.8766  -14.8405 N   0  0  0  0  0  0  0  0  0  0  0  0
  -22.4563    0.2464  -13.8313 C   0  0  0  0  0  0  0  0  0  0  0  0
  -21.9833   -0.1076  -12.7576 O   0  0  0  0  0  0  0  0  0  0  0  0
  -23.7705   -0.0233  -14.1940 N   0  0  0  0  0  0  0  0  0  0  0  0
  -22.2879    1.2457  -15.6100 H   0  0  0  0  0  0  0  0  0  0  0  0
  -23.9199   -0.2134  -15.1742 H   0  0  0  0  0  0  0  0  0  0  0  0
  -24.6399   -0.6816  -13.2885 C   0  0  0  0  0  0  0  0  0  0  0  0
  -24.2872   -0.7521  -11.9415 C   0  0  0  0  0  0  0  0  0  0  0  0
  -25.1850   -1.2928  -11.0180 C   0  0  0  0  0  0  0  0  0  0  0  0
  -26.4107   -1.8115  -11.4424 C   0  0  0  0  0  0  0  0  0  0  0  0
  -26.7521   -1.7966  -12.7970 C   0  0  0  0  0  0  0  0  0  0  0  0
  -28.0507   -2.3707  -13.2817 C   0  0  0  0  0  0  0  0  0  0  0  0
  -25.8603   -1.2235  -13.7122 C   0  0  0  0  0  0  0  0  0  0  0  0
 21 22  1  0  0  0
 22 20  1  0  0  0
 20 19  1  0  0  0
 19  7  1  0  0  0
  7  8  1  0  0  0
  7 16  2  0  0  0
  8  9  1  0  0  0
  9 10  1  0  0  0
  9 15  2  0  0  0
 10 11  2  0  0  0
 11 12  1  0  0  0
 12 13  2  0  0  0
 13 14  1  0  0  0
 13 15  1  0  0  0
 14 17  1  0  0  0
 14 18  1  0  0  0
 15 16  1  0  0  0
 16  1  1  0  0  0
  1  2  1  0  0  0
  1  6  2  0  0  0
  2  3  2  0  0  0
  3  4  1  0  0  0
  4 23  1  0  0  0
  4  5  2  0  0  0
 23 24  1  0  0  0
 23 27  1  0  0  0
 24 25  2  0  0  0
 24 26  1  0  0  0
 26 29  1  0  0  0
 26 28  1  0  0  0
 29 30  1  0  0  0
 29 35  2  0  0  0
 30 31  2  0  0  0
 31 32  1  0  0  0
 32 33  2  0  0  0
 33 34  1  0  0  0
 33 35  1  0  0  0
  5  6  1  0  0  0
M  END
> <minimizedAffinity>
-8.97506

$$$$
