CHEMBL4083910


 36 40  0  0  0  0  0  0  0  0999 V2000
  -28.0124   -9.3346   -3.4927 N   0  0  0  0  0  0  0  0  0  0  0  0
  -27.9340   -8.1344   -4.1730 C   0  0  0  0  0  0  0  0  0  0  0  0
  -27.1090   -7.9212   -5.0664 O   0  0  0  0  0  0  0  0  0  0  0  0
  -28.7773   -7.1759   -3.6500 N   0  0  0  0  0  0  0  0  0  0  0  0
  -28.7536   -9.5178   -2.8355 H   0  0  0  0  0  0  0  0  0  0  0  0
  -29.2669   -7.4220   -2.7989 H   0  0  0  0  0  0  0  0  0  0  0  0
  -23.7339  -11.5572   -2.5212 C   0  0  0  0  0  0  0  0  0  0  0  0
  -25.0195  -11.5139   -3.2888 C   0  0  0  0  0  0  0  0  0  0  0  0
  -25.3099  -12.4660   -4.2568 C   0  0  0  0  0  0  0  0  0  0  0  0
  -26.4922  -12.3765   -4.9977 C   0  0  0  0  0  0  0  0  0  0  0  0
  -27.4308  -11.3390   -4.8162 C   0  0  0  0  0  0  0  0  0  0  0  0
  -27.1530  -10.4243   -3.7780 C   0  0  0  0  0  0  0  0  0  0  0  0
  -25.9590  -10.5137   -3.0337 C   0  0  0  0  0  0  0  0  0  0  0  0
  -28.5786  -11.3598   -5.5979 N   0  0  0  0  0  0  0  0  0  0  0  0
  -28.7250  -10.6316   -6.8628 C   0  0  0  0  0  0  0  0  0  0  0  0
  -30.1671  -10.0998   -6.9912 C   0  0  0  0  0  0  0  0  0  0  0  0
  -31.1470  -11.1395   -6.8249 O   0  0  0  0  0  0  0  0  0  0  0  0
  -31.0076  -11.7440   -5.5288 C   0  0  0  0  0  0  0  0  0  0  0  0
  -29.6191  -12.3773   -5.3610 C   0  0  0  0  0  0  0  0  0  0  0  0
  -28.8822   -5.8233   -4.0633 C   0  0  0  0  0  0  0  0  0  0  0  0
  -30.0179   -5.2842   -4.6668 C   0  0  0  0  0  0  0  0  0  0  0  0
  -30.0178   -3.9667   -5.1464 C   0  0  0  0  0  0  0  0  0  0  0  0
  -28.9067   -3.1148   -4.9999 C   0  0  0  0  0  0  0  0  0  0  0  0
  -27.8253   -3.6458   -4.2820 C   0  0  0  0  0  0  0  0  0  0  0  0
  -27.7888   -4.9852   -3.8628 C   0  0  0  0  0  0  0  0  0  0  0  0
  -28.9137   -1.7327   -5.5341 C   0  0  0  0  0  0  0  0  0  0  0  0
  -29.3601   -0.6550   -4.7316 C   0  0  0  0  0  0  0  0  0  0  0  0
  -29.3851    0.6426   -5.2226 C   0  0  0  0  0  0  0  0  0  0  0  0
  -28.9936    1.0096   -6.4528 N   0  0  0  0  0  0  0  0  0  0  0  0
  -28.5747   -0.0308   -7.1955 C   0  0  0  0  0  0  0  0  0  0  0  0
  -28.1328    0.0788   -8.4791 N   0  0  0  0  0  0  0  0  0  0  0  0
  -27.7853   -1.0854   -9.0404 N   0  0  0  0  0  0  0  0  0  0  0  0
  -28.0334   -1.9888   -8.0749 C   0  0  0  0  0  0  0  0  0  0  0  0
  -27.7834   -3.4117   -8.4238 C   0  0  0  0  0  0  0  0  0  0  0  0
  -28.5099   -1.3811   -6.8584 C   0  0  0  0  0  0  0  0  0  0  0  0
  -28.0511    0.9340   -9.0156 H   0  0  0  0  0  0  0  0  0  0  0  0
  7  8  1  0  0  0
  8  9  1  0  0  0
  8 13  2  0  0  0
  9 10  2  0  0  0
 10 11  1  0  0  0
 11 14  1  0  0  0
 11 12  2  0  0  0
 14 15  1  0  0  0
 14 19  1  0  0  0
 15 16  1  0  0  0
 16 17  1  0  0  0
 17 18  1  0  0  0
 18 19  1  0  0  0
 12  1  1  0  0  0
 12 13  1  0  0  0
  1  2  1  0  0  0
  1  5  1  0  0  0
  2  3  2  0  0  0
  2  4  1  0  0  0
  4 20  1  0  0  0
  4  6  1  0  0  0
 20 21  1  0  0  0
 20 25  2  0  0  0
 21 22  2  0  0  0
 22 23  1  0  0  0
 23 26  1  0  0  0
 23 24  2  0  0  0
 26 27  1  0  0  0
 26 35  2  0  0  0
 27 28  2  0  0  0
 28 29  1  0  0  0
 29 30  2  0  0  0
 30 31  1  0  0  0
 30 35  1  0  0  0
 31 32  1  0  0  0
 31 36  1  0  0  0
 32 33  2  0  0  0
 33 34  1  0  0  0
 33 35  1  0  0  0
 24 25  1  0  0  0
M  END
> <minimizedAffinity>
-7.04365

$$$$
