CHEMBL428741


 42 45  0  0  0  0  0  0  0  0999 V2000
  -13.9496    2.5051  -16.9551 C   0  0  0  0  0  0  0  0  0  0  0  0
  -12.7813    2.4462  -17.7399 C   0  0  0  0  0  0  0  0  0  0  0  0
  -12.4128    1.3234  -18.5073 C   0  0  0  0  0  0  0  0  0  0  0  0
  -11.2781    1.3413  -19.2139 N   0  0  0  0  0  0  0  0  0  0  0  0
  -10.9601    0.2126  -19.8709 C   0  0  0  0  0  0  0  0  0  0  0  0
  -11.6716   -0.9228  -19.9030 N   0  0  0  0  0  0  0  0  0  0  0  0
  -12.8333   -0.9213  -19.2379 C   0  0  0  0  0  0  0  0  0  0  0  0
  -13.2531    0.2135  -18.4899 C   0  0  0  0  0  0  0  0  0  0  0  0
  -14.4149    0.2906  -17.7016 C   0  0  0  0  0  0  0  0  0  0  0  0
  -14.8122    1.4133  -16.9826 C   0  0  0  0  0  0  0  0  0  0  0  0
  -16.0517    1.3020  -16.3162 N   0  0  0  0  0  0  0  0  0  0  0  0
  -16.1139    1.1234  -14.9454 C   0  0  0  0  0  0  0  0  0  0  0  0
  -15.1428    1.0869  -14.1972 O   0  0  0  0  0  0  0  0  0  0  0  0
  -16.8927    1.1966  -16.8581 H   0  0  0  0  0  0  0  0  0  0  0  0
  -17.5027    0.9495  -14.4389 C   0  0  0  0  0  0  0  0  0  0  0  0
  -18.5304    0.9974  -15.3035 C   0  0  0  0  0  0  0  0  0  0  0  0
  -19.9860    0.7637  -15.0097 C   0  0  0  0  0  0  0  0  0  0  0  0
  -20.6555    1.7476  -14.1448 N   0  0  0  0  0  0  0  0  0  0  0  0
  -20.6093    3.0948  -14.7254 C   0  0  0  0  0  0  0  0  0  0  0  0
  -22.0654    1.3558  -13.9865 C   0  0  0  0  0  0  0  0  0  0  0  0
  -13.5548   -2.1361  -19.2803 N   0  0  0  0  0  0  0  0  0  0  0  0
  -14.4752   -1.9828  -19.6757 H   0  0  0  0  0  0  0  0  0  0  0  0
  -13.4685   -3.1699  -18.3550 C   0  0  0  0  0  0  0  0  0  0  0  0
  -12.8556   -3.1341  -17.1562 C   0  0  0  0  0  0  0  0  0  0  0  0
  -12.6309   -4.3528  -16.3402 C   0  0  0  0  0  0  0  0  0  0  0  0
  -12.0407   -4.2551  -15.2667 O   0  0  0  0  0  0  0  0  0  0  0  0
  -13.0862   -5.6678  -16.8982 C   0  0  0  0  0  0  0  0  0  0  0  0
  -13.7493   -5.6800  -18.0543 C   0  0  0  0  0  0  0  0  0  0  0  0
  -14.0755   -4.4632  -18.8012 C   0  0  0  0  0  0  0  0  0  0  0  0
  -14.7480   -4.5473  -19.8256 O   0  0  0  0  0  0  0  0  0  0  0  0
  -12.8275   -6.8923  -16.3009 O   0  0  0  0  0  0  0  0  0  0  0  0
  -13.9593   -7.6270  -15.8480 C   0  0  0  0  0  0  0  0  0  0  0  0
  -14.3116   -7.1095  -14.4747 C   0  0  0  0  0  0  0  0  0  0  0  0
  -13.3398   -7.0767  -13.4603 C   0  0  0  0  0  0  0  0  0  0  0  0
  -13.6600   -6.6167  -12.1806 C   0  0  0  0  0  0  0  0  0  0  0  0
  -14.9510   -6.1708  -11.9070 C   0  0  0  0  0  0  0  0  0  0  0  0
  -15.9054   -6.1743  -12.9180 C   0  0  0  0  0  0  0  0  0  0  0  0
  -17.1430   -5.7341  -12.6568 F   0  0  0  0  0  0  0  0  0  0  0  0
  -15.5985   -6.6324  -14.1959 C   0  0  0  0  0  0  0  0  0  0  0  0
  -14.0989    3.6912  -16.2847 O   0  0  0  0  0  0  0  0  0  0  0  0
  -12.7136    5.3781  -15.2779 C   0  0  0  0  0  0  0  0  0  0  0  0
  -13.2269    3.9578  -15.1937 C   0  0  0  0  0  0  0  0  0  0  0  0
 41 42  1  0  0  0
 42 40  1  0  0  0
 40  1  1  0  0  0
  1  2  1  0  0  0
  1 10  2  0  0  0
  2  3  2  0  0  0
  3  4  1  0  0  0
  3  8  1  0  0  0
  4  5  2  0  0  0
  5  6  1  0  0  0
  6  7  2  0  0  0
  7 21  1  0  0  0
  7  8  1  0  0  0
 21 23  1  0  0  0
 21 22  1  0  0  0
 23 24  2  0  0  0
 23 29  1  0  0  0
 24 25  1  0  0  0
 25 26  2  0  0  0
 25 27  1  0  0  0
 27 31  1  0  0  0
 27 28  2  0  0  0
 31 32  1  0  0  0
 32 33  1  0  0  0
 33 34  1  0  0  0
 33 39  2  0  0  0
 34 35  2  0  0  0
 35 36  1  0  0  0
 36 37  2  0  0  0
 37 38  1  0  0  0
 37 39  1  0  0  0
 28 29  1  0  0  0
 29 30  2  0  0  0
  8  9  2  0  0  0
  9 10  1  0  0  0
 10 11  1  0  0  0
 11 12  1  0  0  0
 11 14  1  0  0  0
 12 13  2  0  0  0
 12 15  1  0  0  0
 15 16  2  0  0  0
 16 17  1  0  0  0
 17 18  1  0  0  0
 18 19  1  0  0  0
 18 20  1  0  0  0
M  END
> <minimizedAffinity>
-7.00164

$$$$
