CHEMBL475709


 25 27  0  0  0  0  0  0  0  0999 V2000
  -28.2284   -2.1446   -7.1537 C   0  0  0  0  0  0  0  0  0  0  0  0
  -27.7464   -1.0731   -6.5062 N   0  0  0  0  0  0  0  0  0  0  0  0
  -28.5503   -0.9162   -5.0627 S   0  0  0  0  0  0  0  0  0  0  0  0
  -29.5222   -2.3129   -5.2305 C   0  0  0  0  0  0  0  0  0  0  0  0
  -29.2254   -2.9160   -6.4321 C   0  0  0  0  0  0  0  0  0  0  0  0
  -27.5180   -3.6914   -8.7608 O   0  0  0  0  0  0  0  0  0  0  0  0
  -27.7293   -2.5085   -8.4911 C   0  0  0  0  0  0  0  0  0  0  0  0
  -27.4790   -1.4393   -9.3421 N   0  0  0  0  0  0  0  0  0  0  0  0
  -27.5761   -0.5205   -8.9203 H   0  0  0  0  0  0  0  0  0  0  0  0
  -26.9159   -1.5519  -10.6313 C   0  0  0  0  0  0  0  0  0  0  0  0
  -25.5429   -1.4138  -10.8659 C   0  0  0  0  0  0  0  0  0  0  0  0
  -25.0277   -1.4088  -12.1620 C   0  0  0  0  0  0  0  0  0  0  0  0
  -25.8876   -1.5667  -13.2410 C   0  0  0  0  0  0  0  0  0  0  0  0
  -25.2621   -1.4969  -14.8411 Cl  0  0  0  0  0  0  0  0  0  0  0  0
  -27.2497   -1.7726  -13.0259 C   0  0  0  0  0  0  0  0  0  0  0  0
  -27.7633   -1.7779  -11.7204 C   0  0  0  0  0  0  0  0  0  0  0  0
  -29.8026   -4.0525   -6.9192 N   0  0  0  0  0  0  0  0  0  0  0  0
  -29.5646   -4.3167   -7.8848 H   0  0  0  0  0  0  0  0  0  0  0  0
  -30.1475   -5.2018   -6.1014 C   0  0  0  0  0  0  0  0  0  0  0  0
  -30.0206   -6.4892   -6.8854 C   0  0  0  0  0  0  0  0  0  0  0  0
  -31.0478   -7.4386   -6.8921 C   0  0  0  0  0  0  0  0  0  0  0  0
  -30.9074   -8.5737   -7.6784 C   0  0  0  0  0  0  0  0  0  0  0  0
  -29.8294   -8.8245   -8.4505 N   0  0  0  0  0  0  0  0  0  0  0  0
  -28.8412   -7.9072   -8.4231 C   0  0  0  0  0  0  0  0  0  0  0  0
  -28.8885   -6.7434   -7.6685 C   0  0  0  0  0  0  0  0  0  0  0  0
  6  7  2  0  0  0
  7  8  1  0  0  0
  7  1  1  0  0  0
  8 10  1  0  0  0
  8  9  1  0  0  0
 10 11  1  0  0  0
 10 16  2  0  0  0
 11 12  2  0  0  0
 12 13  1  0  0  0
 13 14  1  0  0  0
 13 15  2  0  0  0
 15 16  1  0  0  0
  1  2  2  0  0  0
  1  5  1  0  0  0
  2  3  1  0  0  0
  3  4  1  0  0  0
  4  5  2  0  0  0
  5 17  1  0  0  0
 17 19  1  0  0  0
 17 18  1  0  0  0
 19 20  1  0  0  0
 20 21  1  0  0  0
 20 25  2  0  0  0
 21 22  2  0  0  0
 22 23  1  0  0  0
 23 24  2  0  0  0
 24 25  1  0  0  0
M  END
> <minimizedAffinity>
-7.81811

$$$$
