CHEMBL3586052


 30 32  0  0  0  0  0  0  0  0999 V2000
  -26.4072   -1.1262   -9.0380 O   0  0  0  0  0  0  0  0  0  0  0  0
  -26.7029   -2.1146   -9.6596 C   0  0  0  0  0  0  0  0  0  0  0  0
  -26.1697   -2.5012  -10.8850 N   0  0  0  0  0  0  0  0  0  0  0  0
  -27.6601   -3.0502   -9.2254 N   0  0  0  0  0  0  0  0  0  0  0  0
  -26.6360   -3.2408  -11.3868 H   0  0  0  0  0  0  0  0  0  0  0  0
  -27.6113   -3.9582   -9.6459 H   0  0  0  0  0  0  0  0  0  0  0  0
  -28.3152   -2.9254   -7.9700 C   0  0  0  0  0  0  0  0  0  0  0  0
  -28.0943   -1.7273   -7.2665 C   0  0  0  0  0  0  0  0  0  0  0  0
  -28.8426   -1.4184   -6.1309 C   0  0  0  0  0  0  0  0  0  0  0  0
  -28.5501    0.2165   -5.2265 Br  0  0  0  0  0  0  0  0  0  0  0  0
  -29.8224   -2.2916   -5.6724 C   0  0  0  0  0  0  0  0  0  0  0  0
  -30.0551   -3.4930   -6.3567 C   0  0  0  0  0  0  0  0  0  0  0  0
  -29.2939   -3.8264   -7.4946 C   0  0  0  0  0  0  0  0  0  0  0  0
  -29.6365   -5.0470   -8.0030 O   0  0  0  0  0  0  0  0  0  0  0  0
  -28.8191   -6.1812   -7.7427 C   0  0  0  0  0  0  0  0  0  0  0  0
  -28.3370   -6.2466   -6.4985 F   0  0  0  0  0  0  0  0  0  0  0  0
  -29.5276   -7.3160   -7.9456 F   0  0  0  0  0  0  0  0  0  0  0  0
  -27.7850   -6.1586   -8.6118 F   0  0  0  0  0  0  0  0  0  0  0  0
  -25.2596   -1.7270  -11.6388 C   0  0  0  0  0  0  0  0  0  0  0  0
  -23.9510   -2.1289  -11.8918 C   0  0  0  0  0  0  0  0  0  0  0  0
  -23.0691   -1.3009  -12.5872 C   0  0  0  0  0  0  0  0  0  0  0  0
  -23.4726   -0.0433  -13.0515 C   0  0  0  0  0  0  0  0  0  0  0  0
  -24.8032    0.3424  -12.8184 C   0  0  0  0  0  0  0  0  0  0  0  0
  -25.6901   -0.4879  -12.1267 C   0  0  0  0  0  0  0  0  0  0  0  0
  -22.5266    0.8509  -13.7365 C   0  0  0  0  0  0  0  0  0  0  0  0
  -21.3976    0.3702  -14.4106 C   0  0  0  0  0  0  0  0  0  0  0  0
  -20.5252    1.2569  -15.0366 C   0  0  0  0  0  0  0  0  0  0  0  0
  -20.8084    2.6097  -14.9744 C   0  0  0  0  0  0  0  0  0  0  0  0
  -21.8778    3.1242  -14.3355 N   0  0  0  0  0  0  0  0  0  0  0  0
  -22.6989    2.2348  -13.7314 C   0  0  0  0  0  0  0  0  0  0  0  0
  1  2  2  0  0  0
  2  3  1  0  0  0
  2  4  1  0  0  0
  3 19  1  0  0  0
  3  5  1  0  0  0
 19 20  1  0  0  0
 19 24  2  0  0  0
 20 21  2  0  0  0
 21 22  1  0  0  0
 22 25  1  0  0  0
 22 23  2  0  0  0
 25 26  1  0  0  0
 25 30  2  0  0  0
 26 27  2  0  0  0
 27 28  1  0  0  0
 28 29  2  0  0  0
 29 30  1  0  0  0
 23 24  1  0  0  0
  4  7  1  0  0  0
  4  6  1  0  0  0
  7  8  1  0  0  0
  7 13  2  0  0  0
  8  9  2  0  0  0
  9 10  1  0  0  0
  9 11  1  0  0  0
 11 12  2  0  0  0
 12 13  1  0  0  0
 13 14  1  0  0  0
 14 15  1  0  0  0
 15 16  1  0  0  0
 15 17  1  0  0  0
 15 18  1  0  0  0
M  END
> <minimizedAffinity>
-10.70489

$$$$
