CHEMBL231410


 34 38  0  0  0  0  0  0  0  0999 V2000
  -23.1928   -0.2461  -13.5786 C   0  0  0  0  0  0  0  0  0  0  0  0
  -23.3816    0.0581  -12.2287 C   0  0  0  0  0  0  0  0  0  0  0  0
  -24.5587   -0.2964  -11.5661 C   0  0  0  0  0  0  0  0  0  0  0  0
  -25.6190   -0.9307  -12.2265 C   0  0  0  0  0  0  0  0  0  0  0  0
  -25.4207   -1.2827  -13.5635 C   0  0  0  0  0  0  0  0  0  0  0  0
  -24.2122   -0.9529  -14.2323 C   0  0  0  0  0  0  0  0  0  0  0  0
  -22.9721    3.0970  -13.4498 N   0  0  0  0  0  0  0  0  0  0  0  0
  -21.8085    2.8005  -14.1481 C   0  0  0  0  0  0  0  0  0  0  0  0
  -21.0861    3.8800  -14.5243 N   0  0  0  0  0  0  0  0  0  0  0  0
  -19.9276    3.7239  -15.1834 C   0  0  0  0  0  0  0  0  0  0  0  0
  -19.3832    2.5042  -15.5084 C   0  0  0  0  0  0  0  0  0  0  0  0
  -20.1318    1.3827  -15.1351 C   0  0  0  0  0  0  0  0  0  0  0  0
  -19.6749   -0.2453  -15.4280 S   0  0  0  0  0  0  0  0  0  0  0  0
  -21.1001   -0.8350  -14.7268 C   0  0  0  0  0  0  0  0  0  0  0  0
  -21.9345    0.1566  -14.2378 C   0  0  0  0  0  0  0  0  0  0  0  0
  -21.3585    1.4879  -14.4648 C   0  0  0  0  0  0  0  0  0  0  0  0
  -22.9695    4.0785  -13.1921 H   0  0  0  0  0  0  0  0  0  0  0  0
  -23.1682    2.4528  -12.6960 H   0  0  0  0  0  0  0  0  0  0  0  0
  -26.8511   -1.2082  -11.5634 N   0  0  0  0  0  0  0  0  0  0  0  0
  -26.9088   -1.7068  -10.2613 C   0  0  0  0  0  0  0  0  0  0  0  0
  -25.9223   -1.8366   -9.5408 O   0  0  0  0  0  0  0  0  0  0  0  0
  -28.1936   -2.0590   -9.8428 N   0  0  0  0  0  0  0  0  0  0  0  0
  -27.6767   -0.7289  -11.8962 H   0  0  0  0  0  0  0  0  0  0  0  0
  -28.7521   -2.4967  -10.5594 H   0  0  0  0  0  0  0  0  0  0  0  0
  -28.3623   -2.5387   -8.4956 C   0  0  0  0  0  0  0  0  0  0  0  0
  -28.5825   -3.9077   -8.3228 C   0  0  0  0  0  0  0  0  0  0  0  0
  -28.8153   -4.4563   -7.0573 C   0  0  0  0  0  0  0  0  0  0  0  0
  -28.9688   -3.6102   -5.9757 C   0  0  0  0  0  0  0  0  0  0  0  0
  -28.8626   -2.2290   -6.1319 C   0  0  0  0  0  0  0  0  0  0  0  0
  -29.2911   -1.4156   -5.0989 C   0  0  0  0  0  0  0  0  0  0  0  0
  -29.3179   -0.0408   -5.3131 C   0  0  0  0  0  0  0  0  0  0  0  0
  -28.3785    0.4640   -6.2096 C   0  0  0  0  0  0  0  0  0  0  0  0
  -28.0486   -0.2961   -7.3044 C   0  0  0  0  0  0  0  0  0  0  0  0
  -28.3906   -1.6679   -7.3580 C   0  0  0  0  0  0  0  0  0  0  0  0
  7  8  1  0  0  0
  7 17  1  0  0  0
  7 18  1  0  0  0
  8  9  1  0  0  0
  8 16  2  0  0  0
  9 10  2  0  0  0
 10 11  1  0  0  0
 11 12  2  0  0  0
 12 13  1  0  0  0
 12 16  1  0  0  0
 13 14  1  0  0  0
 14 15  2  0  0  0
 15  1  1  0  0  0
 15 16  1  0  0  0
  1  2  1  0  0  0
  1  6  2  0  0  0
  2  3  2  0  0  0
  3  4  1  0  0  0
  4 19  1  0  0  0
  4  5  2  0  0  0
 19 20  1  0  0  0
 19 23  1  0  0  0
 20 21  2  0  0  0
 20 22  1  0  0  0
 22 25  1  0  0  0
 22 24  1  0  0  0
 25 26  1  0  0  0
 25 34  2  0  0  0
 26 27  2  0  0  0
 27 28  1  0  0  0
 28 29  2  0  0  0
 29 30  1  0  0  0
 29 34  1  0  0  0
 30 31  2  0  0  0
 31 32  1  0  0  0
 32 33  2  0  0  0
 33 34  1  0  0  0
  5  6  1  0  0  0
M  END
> <minimizedAffinity>
-10.12437

$$$$
