CHEMBL3913290


 37 40  0  0  0  0  0  0  0  0999 V2000
  -33.9899    4.1336   -9.6278 C   0  0  0  0  0  0  0  0  0  0  0  0
  -35.2707    4.1320  -10.1831 C   0  0  0  0  0  0  0  0  0  0  0  0
  -35.8206    5.2935  -10.7235 C   0  0  0  0  0  0  0  0  0  0  0  0
  -35.1417    6.5068  -10.6237 C   0  0  0  0  0  0  0  0  0  0  0  0
  -33.8698    6.5274  -10.0489 C   0  0  0  0  0  0  0  0  0  0  0  0
  -33.2977    5.3473   -9.5472 C   0  0  0  0  0  0  0  0  0  0  0  0
  -31.6554    3.9163   -7.9245 O   0  0  0  0  0  0  0  0  0  0  0  0
  -32.2405    2.9251   -8.3467 C   0  0  0  0  0  0  0  0  0  0  0  0
  -33.3456    2.9550   -9.1820 N   0  0  0  0  0  0  0  0  0  0  0  0
  -31.8755    1.6336   -8.0181 N   0  0  0  0  0  0  0  0  0  0  0  0
  -33.8560    2.0912   -9.2882 H   0  0  0  0  0  0  0  0  0  0  0  0
  -32.1523    0.8979   -8.6549 H   0  0  0  0  0  0  0  0  0  0  0  0
  -30.8813    1.2838   -7.0663 C   0  0  0  0  0  0  0  0  0  0  0  0
  -29.8481    0.3816   -7.3605 C   0  0  0  0  0  0  0  0  0  0  0  0
  -28.8697    0.0471   -6.4103 C   0  0  0  0  0  0  0  0  0  0  0  0
  -28.9291    0.6407   -5.1426 C   0  0  0  0  0  0  0  0  0  0  0  0
  -29.9421    1.5530   -4.8373 C   0  0  0  0  0  0  0  0  0  0  0  0
  -30.9077    1.8767   -5.7950 C   0  0  0  0  0  0  0  0  0  0  0  0
  -32.1465    3.0050   -5.3641 Cl  0  0  0  0  0  0  0  0  0  0  0  0
  -27.7641   -0.9247   -6.7534 C   0  0  0  0  0  0  0  0  0  0  0  0
  -27.0873   -0.6138   -7.8930 F   0  0  0  0  0  0  0  0  0  0  0  0
  -26.8226   -0.9965   -5.7715 F   0  0  0  0  0  0  0  0  0  0  0  0
  -28.2221   -2.1953   -6.9245 F   0  0  0  0  0  0  0  0  0  0  0  0
  -35.6399    7.7041  -11.0995 O   0  0  0  0  0  0  0  0  0  0  0  0
  -35.1555    8.2087  -12.2926 C   0  0  0  0  0  0  0  0  0  0  0  0
  -35.5380    7.7208  -13.5379 C   0  0  0  0  0  0  0  0  0  0  0  0
  -34.9328    8.2537  -14.6506 C   0  0  0  0  0  0  0  0  0  0  0  0
  -34.0520    9.2634  -14.5918 N   0  0  0  0  0  0  0  0  0  0  0  0
  -33.7373    9.7920  -13.3981 C   0  0  0  0  0  0  0  0  0  0  0  0
  -34.2679    9.2875  -12.2139 C   0  0  0  0  0  0  0  0  0  0  0  0
  -32.8470   10.8801  -13.3521 N   0  0  0  0  0  0  0  0  0  0  0  0
  -31.5135   10.7526  -13.0128 C   0  0  0  0  0  0  0  0  0  0  0  0
  -30.9136    9.7286  -12.7071 O   0  0  0  0  0  0  0  0  0  0  0  0
  -33.2069   11.7919  -13.5866 H   0  0  0  0  0  0  0  0  0  0  0  0
  -30.7405   12.0382  -13.0325 C   0  0  0  0  0  0  0  0  0  0  0  0
  -29.9727   12.4153  -14.2815 C   0  0  0  0  0  0  0  0  0  0  0  0
  -29.2290   11.9884  -13.0532 C   0  0  0  0  0  0  0  0  0  0  0  0
  7  8  2  0  0  0
  8  9  1  0  0  0
  8 10  1  0  0  0
  9  1  1  0  0  0
  9 11  1  0  0  0
  1  2  1  0  0  0
  1  6  2  0  0  0
  2  3  2  0  0  0
  3  4  1  0  0  0
  4 24  1  0  0  0
  4  5  2  0  0  0
 24 25  1  0  0  0
 25 26  1  0  0  0
 25 30  2  0  0  0
 26 27  2  0  0  0
 27 28  1  0  0  0
 28 29  2  0  0  0
 29 31  1  0  0  0
 29 30  1  0  0  0
 31 32  1  0  0  0
 31 34  1  0  0  0
 32 33  2  0  0  0
 32 35  1  0  0  0
 35 36  1  0  0  0
 35 37  1  0  0  0
 36 37  1  0  0  0
  5  6  1  0  0  0
 10 13  1  0  0  0
 10 12  1  0  0  0
 13 14  1  0  0  0
 13 18  2  0  0  0
 14 15  2  0  0  0
 15 20  1  0  0  0
 15 16  1  0  0  0
 20 21  1  0  0  0
 20 22  1  0  0  0
 20 23  1  0  0  0
 16 17  2  0  0  0
 17 18  1  0  0  0
 18 19  1  0  0  0
M  END
> <minimizedAffinity>
-2.77328

$$$$
