CHEMBL199031


 35 38  0  0  0  0  0  0  0  0999 V2000
  -16.4970    2.1894  -15.5609 C   0  0  0  0  0  0  0  0  0  0  0  0
  -17.1604    3.4113  -15.5378 C   0  0  0  0  0  0  0  0  0  0  0  0
  -18.5309    3.4898  -15.2793 C   0  0  0  0  0  0  0  0  0  0  0  0
  -19.3153    2.3426  -15.1644 C   0  0  0  0  0  0  0  0  0  0  0  0
  -18.6805    1.1063  -15.2802 C   0  0  0  0  0  0  0  0  0  0  0  0
  -17.2830    1.0329  -15.4359 C   0  0  0  0  0  0  0  0  0  0  0  0
  -14.9210    3.5367  -17.9569 C   0  0  0  0  0  0  0  0  0  0  0  0
  -14.3803    2.7824  -16.7804 C   0  0  0  0  0  0  0  0  0  0  0  0
  -12.6772    2.6498  -16.6742 S   0  0  0  0  0  0  0  0  0  0  0  0
  -12.7516    1.8243  -15.2004 C   0  0  0  0  0  0  0  0  0  0  0  0
  -11.6038    1.4835  -14.5913 N   0  0  0  0  0  0  0  0  0  0  0  0
  -11.8050    0.8426  -13.4454 C   0  0  0  0  0  0  0  0  0  0  0  0
  -12.9805    0.5076  -12.9062 N   0  0  0  0  0  0  0  0  0  0  0  0
  -14.1141    0.8469  -13.5511 C   0  0  0  0  0  0  0  0  0  0  0  0
  -15.2692    0.4123  -12.9178 N   0  0  0  0  0  0  0  0  0  0  0  0
  -14.0465    1.5741  -14.7674 C   0  0  0  0  0  0  0  0  0  0  0  0
  -15.0246    2.1600  -15.7083 C   0  0  0  0  0  0  0  0  0  0  0  0
  -15.0427   -0.2391  -12.1741 H   0  0  0  0  0  0  0  0  0  0  0  0
  -16.0223    0.1351  -13.5328 H   0  0  0  0  0  0  0  0  0  0  0  0
  -20.7108    2.3695  -14.9204 N   0  0  0  0  0  0  0  0  0  0  0  0
  -21.4137    1.3993  -14.2370 C   0  0  0  0  0  0  0  0  0  0  0  0
  -20.9075    0.4232  -13.6971 O   0  0  0  0  0  0  0  0  0  0  0  0
  -22.7884    1.5970  -14.2790 N   0  0  0  0  0  0  0  0  0  0  0  0
  -21.2153    3.1998  -15.1846 H   0  0  0  0  0  0  0  0  0  0  0  0
  -23.1203    1.9981  -15.1427 H   0  0  0  0  0  0  0  0  0  0  0  0
  -23.6229    0.6206  -13.6787 C   0  0  0  0  0  0  0  0  0  0  0  0
  -24.1657   -0.4252  -14.4351 C   0  0  0  0  0  0  0  0  0  0  0  0
  -25.1432   -1.2591  -13.8945 C   0  0  0  0  0  0  0  0  0  0  0  0
  -25.5892   -1.0606  -12.5824 C   0  0  0  0  0  0  0  0  0  0  0  0
  -24.9896   -0.0520  -11.8070 C   0  0  0  0  0  0  0  0  0  0  0  0
  -23.9936    0.7722  -12.3442 C   0  0  0  0  0  0  0  0  0  0  0  0
  -26.7116   -1.8877  -12.0218 C   0  0  0  0  0  0  0  0  0  0  0  0
  -26.3462   -2.6940  -10.9855 F   0  0  0  0  0  0  0  0  0  0  0  0
  -27.7379   -1.1264  -11.5531 F   0  0  0  0  0  0  0  0  0  0  0  0
  -27.2704   -2.7147  -12.9556 F   0  0  0  0  0  0  0  0  0  0  0  0
  7  8  1  0  0  0
  8  9  1  0  0  0
  8 17  2  0  0  0
  9 10  1  0  0  0
 10 11  1  0  0  0
 10 16  2  0  0  0
 11 12  2  0  0  0
 12 13  1  0  0  0
 13 14  2  0  0  0
 14 15  1  0  0  0
 14 16  1  0  0  0
 15 18  1  0  0  0
 15 19  1  0  0  0
 16 17  1  0  0  0
 17  1  1  0  0  0
  1  2  1  0  0  0
  1  6  2  0  0  0
  2  3  2  0  0  0
  3  4  1  0  0  0
  4 20  1  0  0  0
  4  5  2  0  0  0
 20 21  1  0  0  0
 20 24  1  0  0  0
 21 22  2  0  0  0
 21 23  1  0  0  0
 23 26  1  0  0  0
 23 25  1  0  0  0
 26 27  1  0  0  0
 26 31  2  0  0  0
 27 28  2  0  0  0
 28 29  1  0  0  0
 29 32  1  0  0  0
 29 30  2  0  0  0
 32 33  1  0  0  0
 32 34  1  0  0  0
 32 35  1  0  0  0
 30 31  1  0  0  0
  5  6  1  0  0  0
M  END
> <minimizedAffinity>
-9.63301

$$$$
