CHEMBL4640617


 40 44  0  0  0  0  0  0  0  0999 V2000
  -18.5208    2.4400  -14.9821 C   0  0  0  0  0  0  0  0  0  0  0  0
  -17.6868    2.4895  -16.1220 C   0  0  0  0  0  0  0  0  0  0  0  0
  -16.4555    1.7975  -16.1604 C   0  0  0  0  0  0  0  0  0  0  0  0
  -16.0639    1.0603  -15.0526 C   0  0  0  0  0  0  0  0  0  0  0  0
  -16.9207    1.0102  -13.9436 C   0  0  0  0  0  0  0  0  0  0  0  0
  -18.1295    1.6784  -13.8756 C   0  0  0  0  0  0  0  0  0  0  0  0
  -16.3758    0.2315  -12.9323 N   0  0  0  0  0  0  0  0  0  0  0  0
  -15.1262   -0.2427  -13.2821 C   0  0  0  0  0  0  0  0  0  0  0  0
  -14.3674   -0.8494  -12.5516 O   0  0  0  0  0  0  0  0  0  0  0  0
  -14.8818    0.2381  -14.6910 C   0  0  0  0  0  0  0  0  0  0  0  0
  -13.7316   -0.0849  -15.3289 C   0  0  0  0  0  0  0  0  0  0  0  0
  -16.7821    0.0767  -12.0200 H   0  0  0  0  0  0  0  0  0  0  0  0
  -13.3837    0.5928  -16.5953 C   0  0  0  0  0  0  0  0  0  0  0  0
  -13.7334   -0.0227  -17.8090 C   0  0  0  0  0  0  0  0  0  0  0  0
  -13.4473    0.5948  -19.0266 C   0  0  0  0  0  0  0  0  0  0  0  0
  -12.8136    1.8352  -19.0418 C   0  0  0  0  0  0  0  0  0  0  0  0
  -12.4657    2.4568  -17.8421 C   0  0  0  0  0  0  0  0  0  0  0  0
  -12.7498    1.8390  -16.6213 C   0  0  0  0  0  0  0  0  0  0  0  0
  -19.8134    3.1727  -14.8720 C   0  0  0  0  0  0  0  0  0  0  0  0
  -20.0374    4.2315  -15.4374 O   0  0  0  0  0  0  0  0  0  0  0  0
  -21.9870    3.1200  -14.0071 C   0  0  0  0  0  0  0  0  0  0  0  0
  -20.6903    2.5143  -14.0645 O   0  0  0  0  0  0  0  0  0  0  0  0
  -12.6776   -0.8703  -14.8278 N   0  0  0  0  0  0  0  0  0  0  0  0
  -12.4743   -0.5636  -13.8672 H   0  0  0  0  0  0  0  0  0  0  0  0
  -12.7572   -2.2967  -14.6914 C   0  0  0  0  0  0  0  0  0  0  0  0
  -13.6362   -3.0926  -15.4213 C   0  0  0  0  0  0  0  0  0  0  0  0
  -13.7808   -4.4589  -15.1287 C   0  0  0  0  0  0  0  0  0  0  0  0
  -12.9986   -5.0899  -14.1501 C   0  0  0  0  0  0  0  0  0  0  0  0
  -12.0295   -4.3181  -13.5037 C   0  0  0  0  0  0  0  0  0  0  0  0
  -11.9130   -2.9396  -13.7716 C   0  0  0  0  0  0  0  0  0  0  0  0
  -13.2370   -6.4718  -13.8089 N   0  0  0  0  0  0  0  0  0  0  0  0
  -12.9248   -7.5883  -14.6108 C   0  0  0  0  0  0  0  0  0  0  0  0
  -12.1392   -7.6008  -15.8809 C   0  0  0  0  0  0  0  0  0  0  0  0
  -13.4146   -8.7277  -14.0039 C   0  0  0  0  0  0  0  0  0  0  0  0
  -13.9852   -8.3536  -12.7884 C   0  0  0  0  0  0  0  0  0  0  0  0
  -13.8821   -6.9770  -12.6613 C   0  0  0  0  0  0  0  0  0  0  0  0
  -14.4714   -6.2122  -11.5065 C   0  0  0  0  0  0  0  0  0  0  0  0
  -15.3246   -5.0797  -11.8831 N   0  0  0  0  0  0  0  0  0  0  0  0
  -16.7206   -5.4706  -12.0917 C   0  0  0  0  0  0  0  0  0  0  0  0
  -15.2662   -4.0411  -10.8502 C   0  0  0  0  0  0  0  0  0  0  0  0
 21 22  1  0  0  0
 22 19  1  0  0  0
 19 20  2  0  0  0
 19  1  1  0  0  0
  1  2  1  0  0  0
  1  6  2  0  0  0
  2  3  2  0  0  0
  3  4  1  0  0  0
  4  5  2  0  0  0
  4 10  1  0  0  0
  5  6  1  0  0  0
  5  7  1  0  0  0
  7  8  1  0  0  0
  7 12  1  0  0  0
  8  9  2  0  0  0
  8 10  1  0  0  0
 10 11  2  0  0  0
 11 23  1  0  0  0
 11 13  1  0  0  0
 23 25  1  0  0  0
 23 24  1  0  0  0
 25 26  1  0  0  0
 25 30  2  0  0  0
 26 27  2  0  0  0
 27 28  1  0  0  0
 28 31  1  0  0  0
 28 29  2  0  0  0
 31 32  1  0  0  0
 31 36  1  0  0  0
 32 33  1  0  0  0
 32 34  2  0  0  0
 34 35  1  0  0  0
 35 36  2  0  0  0
 36 37  1  0  0  0
 37 38  1  0  0  0
 38 39  1  0  0  0
 38 40  1  0  0  0
 29 30  1  0  0  0
 13 14  1  0  0  0
 13 18  2  0  0  0
 14 15  2  0  0  0
 15 16  1  0  0  0
 16 17  2  0  0  0
 17 18  1  0  0  0
M  END
> <minimizedAffinity>
-7.59907

$$$$
