CHEMBL4466426


 40 44  0  0  0  0  0  0  0  0999 V2000
  -27.1305   -1.9851  -10.3356 C   0  0  0  0  0  0  0  0  0  0  0  0
  -25.7979   -1.6777  -10.0941 C   0  0  0  0  0  0  0  0  0  0  0  0
  -24.9647   -1.2970  -11.1438 C   0  0  0  0  0  0  0  0  0  0  0  0
  -25.4206   -1.2760  -12.4630 C   0  0  0  0  0  0  0  0  0  0  0  0
  -26.7477   -1.6328  -12.7153 C   0  0  0  0  0  0  0  0  0  0  0  0
  -27.5963   -1.9924  -11.6528 C   0  0  0  0  0  0  0  0  0  0  0  0
  -24.5932   -0.8935  -13.5542 N   0  0  0  0  0  0  0  0  0  0  0  0
  -23.4729   -0.0964  -13.4460 C   0  0  0  0  0  0  0  0  0  0  0  0
  -23.0046    0.3188  -12.3915 O   0  0  0  0  0  0  0  0  0  0  0  0
  -22.9202    0.2374  -14.6770 N   0  0  0  0  0  0  0  0  0  0  0  0
  -24.7662   -1.3312  -14.4472 H   0  0  0  0  0  0  0  0  0  0  0  0
  -23.6092    0.4333  -15.3934 H   0  0  0  0  0  0  0  0  0  0  0  0
  -21.8057    1.1210  -14.6638 C   0  0  0  0  0  0  0  0  0  0  0  0
  -20.5086    0.6463  -14.9064 C   0  0  0  0  0  0  0  0  0  0  0  0
  -19.3894    1.4512  -14.6513 C   0  0  0  0  0  0  0  0  0  0  0  0
  -19.5930    2.7564  -14.1743 C   0  0  0  0  0  0  0  0  0  0  0  0
  -20.8880    3.2556  -13.9982 C   0  0  0  0  0  0  0  0  0  0  0  0
  -21.9859    2.4427  -14.2638 C   0  0  0  0  0  0  0  0  0  0  0  0
  -23.2227    2.9082  -14.0325 F   0  0  0  0  0  0  0  0  0  0  0  0
  -17.9921    0.9094  -14.8357 C   0  0  0  0  0  0  0  0  0  0  0  0
  -17.3001    1.4983  -15.8501 F   0  0  0  0  0  0  0  0  0  0  0  0
  -17.2262    1.0778  -13.7212 F   0  0  0  0  0  0  0  0  0  0  0  0
  -17.9786   -0.4271  -15.0967 F   0  0  0  0  0  0  0  0  0  0  0  0
  -28.0196   -2.3538   -9.3526 O   0  0  0  0  0  0  0  0  0  0  0  0
  -29.0600   -3.3492   -4.4522 C   0  0  0  0  0  0  0  0  0  0  0  0
  -28.8391   -1.9804   -4.6413 C   0  0  0  0  0  0  0  0  0  0  0  0
  -28.4873   -1.4399   -5.8691 C   0  0  0  0  0  0  0  0  0  0  0  0
  -28.2759   -0.1198   -5.9280 N   0  0  0  0  0  0  0  0  0  0  0  0
  -27.9870    0.4011   -7.1241 C   0  0  0  0  0  0  0  0  0  0  0  0
  -27.9038   -0.2756   -8.2666 N   0  0  0  0  0  0  0  0  0  0  0  0
  -28.0728   -1.6131   -8.1723 C   0  0  0  0  0  0  0  0  0  0  0  0
  -28.3814   -2.2869   -6.9777 C   0  0  0  0  0  0  0  0  0  0  0  0
  -28.6009   -3.6849   -6.8018 C   0  0  0  0  0  0  0  0  0  0  0  0
  -28.9270   -4.2137   -5.5401 C   0  0  0  0  0  0  0  0  0  0  0  0
  -29.1645   -5.5517   -5.3547 O   0  0  0  0  0  0  0  0  0  0  0  0
  -28.6382   -6.3568   -6.4090 C   0  0  0  0  0  0  0  0  0  0  0  0
  -29.0476   -5.7787   -7.7443 C   0  0  0  0  0  0  0  0  0  0  0  0
  -28.4655   -4.4869   -7.9128 O   0  0  0  0  0  0  0  0  0  0  0  0
  -30.3594   -2.7996   -2.5317 C   0  0  0  0  0  0  0  0  0  0  0  0
  -29.4339   -3.6681   -3.1733 O   0  0  0  0  0  0  0  0  0  0  0  0
 39 40  1  0  0  0
 40 25  1  0  0  0
 25 26  1  0  0  0
 25 34  2  0  0  0
 26 27  2  0  0  0
 27 28  1  0  0  0
 27 32  1  0  0  0
 28 29  2  0  0  0
 29 30  1  0  0  0
 30 31  2  0  0  0
 31 24  1  0  0  0
 31 32  1  0  0  0
 24  1  1  0  0  0
  1  2  1  0  0  0
  1  6  2  0  0  0
  2  3  2  0  0  0
  3  4  1  0  0  0
  4  7  1  0  0  0
  4  5  2  0  0  0
  7  8  1  0  0  0
  7 11  1  0  0  0
  8  9  2  0  0  0
  8 10  1  0  0  0
 10 13  1  0  0  0
 10 12  1  0  0  0
 13 14  1  0  0  0
 13 18  2  0  0  0
 14 15  2  0  0  0
 15 20  1  0  0  0
 15 16  1  0  0  0
 20 21  1  0  0  0
 20 22  1  0  0  0
 20 23  1  0  0  0
 16 17  2  0  0  0
 17 18  1  0  0  0
 18 19  1  0  0  0
  5  6  1  0  0  0
 32 33  2  0  0  0
 33 34  1  0  0  0
 33 38  1  0  0  0
 34 35  1  0  0  0
 35 36  1  0  0  0
 36 37  1  0  0  0
 37 38  1  0  0  0
M  END
> <minimizedAffinity>
-10.36648

$$$$
