CHEMBL2333163


 86 91  0  0  0  0  0  0  0  0999 V2000
  -25.0228   -0.1276  -12.2610 N   0  0  0  0  0  0  0  0  0  0  0  0
  -25.2035   -1.0850  -11.2796 C   0  0  0  0  0  0  0  0  0  0  0  0
  -24.3278   -1.5980  -10.5997 O   0  0  0  0  0  0  0  0  0  0  0  0
  -25.8569    0.2022  -12.7374 H   0  0  0  0  0  0  0  0  0  0  0  0
  -26.6319   -1.5649  -11.0760 C   0  0  0  0  0  0  0  0  0  0  0  0
  -27.5687   -0.9766  -11.7677 N   0  0  0  0  0  0  0  0  0  0  0  0
  -28.8109   -1.5771  -11.5381 O   0  0  0  0  0  0  0  0  0  0  0  0
  -29.4181   -1.0479  -12.0895 H   0  0  0  0  0  0  0  0  0  0  0  0
  -26.8119   -2.7320  -10.1190 C   0  0  0  0  0  0  0  0  0  0  0  0
  -27.5614   -2.4737   -8.8198 C   0  0  0  0  0  0  0  0  0  0  0  0
  -27.5981   -1.1615   -8.3355 C   0  0  0  0  0  0  0  0  0  0  0  0
  -28.2190   -0.8728   -7.1216 C   0  0  0  0  0  0  0  0  0  0  0  0
  -28.2738    0.9360   -6.5430 Br  0  0  0  0  0  0  0  0  0  0  0  0
  -28.8151   -1.8878   -6.3553 C   0  0  0  0  0  0  0  0  0  0  0  0
  -29.4559   -1.5520   -5.1871 O   0  0  0  0  0  0  0  0  0  0  0  0
  -28.8053   -3.2284   -6.7779 C   0  0  0  0  0  0  0  0  0  0  0  0
  -28.1476   -3.4804   -8.0265 C   0  0  0  0  0  0  0  0  0  0  0  0
  -29.3389   -0.5916   -5.0473 H   0  0  0  0  0  0  0  0  0  0  0  0
  -29.4811   -4.3792   -6.0674 C   0  0  0  0  0  0  0  0  0  0  0  0
  -29.4072   -5.6585   -6.6698 C   0  0  0  0  0  0  0  0  0  0  0  0
  -30.3623   -6.6584   -6.4203 C   0  0  0  0  0  0  0  0  0  0  0  0
  -31.2575   -6.4854   -5.3723 C   0  0  0  0  0  0  0  0  0  0  0  0
  -31.1366   -5.3728   -4.5509 C   0  0  0  0  0  0  0  0  0  0  0  0
  -32.0778   -5.4063   -2.9002 Br  0  0  0  0  0  0  0  0  0  0  0  0
  -30.3184   -4.2934   -4.9287 C   0  0  0  0  0  0  0  0  0  0  0  0
  -30.4461   -3.1637   -4.1629 O   0  0  0  0  0  0  0  0  0  0  0  0
  -29.8171   -2.4993   -4.4935 H   0  0  0  0  0  0  0  0  0  0  0  0
  -30.4514   -7.8926   -7.2803 C   0  0  0  0  0  0  0  0  0  0  0  0
  -29.2205   -8.7471   -7.2241 C   0  0  0  0  0  0  0  0  0  0  0  0
  -28.4731   -9.1523   -8.2151 N   0  0  0  0  0  0  0  0  0  0  0  0
  -28.9123   -8.6893   -9.4533 O   0  0  0  0  0  0  0  0  0  0  0  0
  -28.0983   -8.7543   -9.9918 H   0  0  0  0  0  0  0  0  0  0  0  0
  -28.7468   -9.1774   -5.8374 C   0  0  0  0  0  0  0  0  0  0  0  0
  -29.4657   -9.7767   -5.0600 O   0  0  0  0  0  0  0  0  0  0  0  0
  -27.4595   -8.7692   -5.6276 N   0  0  0  0  0  0  0  0  0  0  0  0
  -26.9998   -8.3924   -6.4579 H   0  0  0  0  0  0  0  0  0  0  0  0
  -26.6942   -9.0808   -4.4601 C   0  0  0  0  0  0  0  0  0  0  0  0
  -26.3961  -10.5751   -4.4412 C   0  0  0  0  0  0  0  0  0  0  0  0
  -24.9431  -10.8525   -4.1889 C   0  0  0  0  0  0  0  0  0  0  0  0
  -24.4801  -11.0465   -2.8688 C   0  0  0  0  0  0  0  0  0  0  0  0
  -23.1335  -11.3029   -2.6501 C   0  0  0  0  0  0  0  0  0  0  0  0
  -22.2402  -11.3539   -3.7180 C   0  0  0  0  0  0  0  0  0  0  0  0
  -20.9219  -11.6231   -3.4871 O   0  0  0  0  0  0  0  0  0  0  0  0
  -22.6930  -11.1371   -5.0220 C   0  0  0  0  0  0  0  0  0  0  0  0
  -21.5112  -11.1730   -6.5047 Br  0  0  0  0  0  0  0  0  0  0  0  0
  -24.0398  -10.8799   -5.2461 C   0  0  0  0  0  0  0  0  0  0  0  0
  -20.7932  -11.7917   -2.5401 H   0  0  0  0  0  0  0  0  0  0  0  0
  -23.7361    0.4920  -12.5692 C   0  0  0  0  0  0  0  0  0  0  0  0
  -22.9241   -0.2947  -13.5979 C   0  0  0  0  0  0  0  0  0  0  0  0
  -19.3318    1.2851  -15.3410 C   0  0  0  0  0  0  0  0  0  0  0  0
  -19.7713   -0.0098  -15.6268 C   0  0  0  0  0  0  0  0  0  0  0  0
  -20.9392   -0.4833  -15.0547 C   0  0  0  0  0  0  0  0  0  0  0  0
  -21.6301    0.2778  -14.0996 C   0  0  0  0  0  0  0  0  0  0  0  0
  -21.1309    1.5308  -13.7328 C   0  0  0  0  0  0  0  0  0  0  0  0
  -19.9826    2.0357  -14.3561 C   0  0  0  0  0  0  0  0  0  0  0  0
  -19.3835    3.7638  -13.8557 Br  0  0  0  0  0  0  0  0  0  0  0  0
  -18.2786    1.8240  -16.0477 O   0  0  0  0  0  0  0  0  0  0  0  0
  -15.3232    0.6609  -14.0864 C   0  0  0  0  0  0  0  0  0  0  0  0
  -14.4020    1.6379  -14.4732 C   0  0  0  0  0  0  0  0  0  0  0  0
  -14.8104    2.7145  -15.2707 C   0  0  0  0  0  0  0  0  0  0  0  0
  -13.5631    4.0955  -15.6402 Br  0  0  0  0  0  0  0  0  0  0  0  0
  -16.1234    2.7918  -15.7474 C   0  0  0  0  0  0  0  0  0  0  0  0
  -16.5633    3.8818  -16.4533 O   0  0  0  0  0  0  0  0  0  0  0  0
  -17.0140    1.7506  -15.4819 C   0  0  0  0  0  0  0  0  0  0  0  0
  -16.5951    0.6848  -14.6642 C   0  0  0  0  0  0  0  0  0  0  0  0
  -15.8227    4.5106  -16.5215 H   0  0  0  0  0  0  0  0  0  0  0  0
  -15.0230   -0.3345  -12.9852 C   0  0  0  0  0  0  0  0  0  0  0  0
  -14.0488   -1.4322  -13.3504 C   0  0  0  0  0  0  0  0  0  0  0  0
  -12.7554   -1.3589  -13.2401 N   0  0  0  0  0  0  0  0  0  0  0  0
  -12.3498   -0.1174  -12.7400 O   0  0  0  0  0  0  0  0  0  0  0  0
  -11.3909   -0.1848  -12.7325 H   0  0  0  0  0  0  0  0  0  0  0  0
  -14.0073   -3.4849  -14.5951 O   0  0  0  0  0  0  0  0  0  0  0  0
  -14.6416   -2.7556  -13.8494 C   0  0  0  0  0  0  0  0  0  0  0  0
  -15.9236   -3.0089  -13.3983 N   0  0  0  0  0  0  0  0  0  0  0  0
  -16.3365   -2.3164  -12.7736 H   0  0  0  0  0  0  0  0  0  0  0  0
  -16.6116   -4.2399  -13.7176 C   0  0  0  0  0  0  0  0  0  0  0  0
  -16.7878   -5.1959  -12.5321 C   0  0  0  0  0  0  0  0  0  0  0  0
  -15.5411   -5.4100  -11.7027 C   0  0  0  0  0  0  0  0  0  0  0  0
  -15.2213   -4.5693  -10.6259 C   0  0  0  0  0  0  0  0  0  0  0  0
  -14.0625   -4.7867   -9.8692 C   0  0  0  0  0  0  0  0  0  0  0  0
  -13.2125   -5.8435  -10.1897 C   0  0  0  0  0  0  0  0  0  0  0  0
  -12.0819   -6.0561   -9.4508 O   0  0  0  0  0  0  0  0  0  0  0  0
  -13.5122   -6.6804  -11.2650 C   0  0  0  0  0  0  0  0  0  0  0  0
  -12.3898   -8.1326  -11.7420 Br  0  0  0  0  0  0  0  0  0  0  0  0
  -14.6674   -6.4599  -12.0210 C   0  0  0  0  0  0  0  0  0  0  0  0
  -12.0360   -5.3968   -8.7396 H   0  0  0  0  0  0  0  0  0  0  0  0
 72 73  2  0  0  0
 73 74  1  0  0  0
 73 68  1  0  0  0
 74 76  1  0  0  0
 74 75  1  0  0  0
 76 77  1  0  0  0
 77 78  1  0  0  0
 78 79  1  0  0  0
 78 85  2  0  0  0
 79 80  2  0  0  0
 80 81  1  0  0  0
 81 82  1  0  0  0
 81 83  2  0  0  0
 82 86  1  0  0  0
 83 84  1  0  0  0
 83 85  1  0  0  0
 68 67  1  0  0  0
 68 69  2  0  0  0
 67 58  1  0  0  0
 58 59  1  0  0  0
 58 65  2  0  0  0
 59 60  2  0  0  0
 60 61  1  0  0  0
 60 62  1  0  0  0
 62 63  1  0  0  0
 62 64  2  0  0  0
 63 66  1  0  0  0
 64 57  1  0  0  0
 64 65  1  0  0  0
 57 50  1  0  0  0
 50 51  1  0  0  0
 50 55  2  0  0  0
 51 52  2  0  0  0
 52 53  1  0  0  0
 53 49  1  0  0  0
 53 54  2  0  0  0
 49 48  1  0  0  0
 48  1  1  0  0  0
  1  2  1  0  0  0
  1  4  1  0  0  0
  2  3  2  0  0  0
  2  5  1  0  0  0
  5  9  1  0  0  0
  5  6  2  0  0  0
  9 10  1  0  0  0
 10 11  1  0  0  0
 10 17  2  0  0  0
 11 12  2  0  0  0
 12 13  1  0  0  0
 12 14  1  0  0  0
 14 15  1  0  0  0
 14 16  2  0  0  0
 15 18  1  0  0  0
 16 19  1  0  0  0
 16 17  1  0  0  0
 19 20  1  0  0  0
 19 25  2  0  0  0
 20 21  2  0  0  0
 21 28  1  0  0  0
 21 22  1  0  0  0
 28 29  1  0  0  0
 29 30  2  0  0  0
 29 33  1  0  0  0
 30 31  1  0  0  0
 31 32  1  0  0  0
 33 34  2  0  0  0
 33 35  1  0  0  0
 35 37  1  0  0  0
 35 36  1  0  0  0
 37 38  1  0  0  0
 38 39  1  0  0  0
 39 40  1  0  0  0
 39 46  2  0  0  0
 40 41  2  0  0  0
 41 42  1  0  0  0
 42 43  1  0  0  0
 42 44  2  0  0  0
 43 47  1  0  0  0
 44 45  1  0  0  0
 44 46  1  0  0  0
 22 23  2  0  0  0
 23 24  1  0  0  0
 23 25  1  0  0  0
 25 26  1  0  0  0
 26 27  1  0  0  0
  6  7  1  0  0  0
  7  8  1  0  0  0
 54 55  1  0  0  0
 55 56  1  0  0  0
 69 70  1  0  0  0
 70 71  1  0  0  0
M  END
> <minimizedAffinity>
-11.45212

$$$$
