CHEMBL1940871


 22 24  0  0  0  0  0  0  0  0999 V2000
  -13.3398    0.9311  -17.6099 C   0  0  0  0  0  0  0  0  0  0  0  0
  -13.9953    2.2854  -17.5349 C   0  0  0  0  0  0  0  0  0  0  0  0
  -13.3942    3.3866  -18.1620 C   0  0  0  0  0  0  0  0  0  0  0  0
  -13.9907    4.6404  -18.1011 C   0  0  0  0  0  0  0  0  0  0  0  0
  -15.1966    4.8004  -17.4195 C   0  0  0  0  0  0  0  0  0  0  0  0
  -15.8112    3.7027  -16.7900 C   0  0  0  0  0  0  0  0  0  0  0  0
  -17.0342    3.8282  -16.1042 C   0  0  0  0  0  0  0  0  0  0  0  0
  -17.6341    2.7230  -15.4820 C   0  0  0  0  0  0  0  0  0  0  0  0
  -16.9090    1.5329  -15.5579 C   0  0  0  0  0  0  0  0  0  0  0  0
  -17.3496    0.0705  -14.7531 Cl  0  0  0  0  0  0  0  0  0  0  0  0
  -15.7444    1.3741  -16.2218 N   0  0  0  0  0  0  0  0  0  0  0  0
  -15.1995    2.4324  -16.8377 C   0  0  0  0  0  0  0  0  0  0  0  0
  -18.9149    2.9393  -14.7784 C   0  0  0  0  0  0  0  0  0  0  0  0
  -20.0829    2.3932  -15.1525 C   0  0  0  0  0  0  0  0  0  0  0  0
  -21.3569    2.6178  -14.4016 C   0  0  0  0  0  0  0  0  0  0  0  0
  -21.7510    3.7627  -14.1934 O   0  0  0  0  0  0  0  0  0  0  0  0
  -22.0590    1.4065  -13.9895 C   0  0  0  0  0  0  0  0  0  0  0  0
  -21.7570    0.0836  -14.2756 C   0  0  0  0  0  0  0  0  0  0  0  0
  -22.7155   -0.8263  -13.7384 C   0  0  0  0  0  0  0  0  0  0  0  0
  -23.7019   -0.1577  -13.0605 C   0  0  0  0  0  0  0  0  0  0  0  0
  -25.3005   -1.0913  -12.1699 I   0  0  0  0  0  0  0  0  0  0  0  0
  -23.4724    1.5226  -13.0253 S   0  0  0  0  0  0  0  0  0  0  0  0
  1  2  1  0  0  0
  2  3  1  0  0  0
  2 12  2  0  0  0
  3  4  2  0  0  0
  4  5  1  0  0  0
  5  6  2  0  0  0
  6  7  1  0  0  0
  6 12  1  0  0  0
  7  8  2  0  0  0
  8 13  1  0  0  0
  8  9  1  0  0  0
 13 14  2  0  0  0
 14 15  1  0  0  0
 15 16  2  0  0  0
 15 17  1  0  0  0
 17 18  2  0  0  0
 17 22  1  0  0  0
 18 19  1  0  0  0
 19 20  2  0  0  0
 20 21  1  0  0  0
 20 22  1  0  0  0
  9 10  1  0  0  0
  9 11  2  0  0  0
 11 12  1  0  0  0
M  END
> <minimizedAffinity>
-8.18115

$$$$
