CHEMBL3758922


 32 34  0  0  0  0  0  0  0  0999 V2000
  -28.2266   -1.3747   -5.2414 C   0  0  0  0  0  0  0  0  0  0  0  0
  -29.0277   -1.9230   -4.2344 C   0  0  0  0  0  0  0  0  0  0  0  0
  -29.7703   -3.0780   -4.4193 C   0  0  0  0  0  0  0  0  0  0  0  0
  -30.5188   -3.5023   -3.3983 N   0  0  0  0  0  0  0  0  0  0  0  0
  -31.1866   -4.6402   -3.5762 C   0  0  0  0  0  0  0  0  0  0  0  0
  -31.1407   -5.4003   -4.6687 N   0  0  0  0  0  0  0  0  0  0  0  0
  -30.3710   -4.9716   -5.6906 C   0  0  0  0  0  0  0  0  0  0  0  0
  -29.6828   -3.7524   -5.6424 C   0  0  0  0  0  0  0  0  0  0  0  0
  -28.8825   -3.2115   -6.6755 C   0  0  0  0  0  0  0  0  0  0  0  0
  -28.1348   -2.0504   -6.4658 C   0  0  0  0  0  0  0  0  0  0  0  0
  -28.2229    1.0257   -5.0000 C   0  0  0  0  0  0  0  0  0  0  0  0
  -27.5275   -0.2108   -5.1026 O   0  0  0  0  0  0  0  0  0  0  0  0
  -30.1932   -5.8444   -6.7950 N   0  0  0  0  0  0  0  0  0  0  0  0
  -30.8050   -5.5981   -7.5682 H   0  0  0  0  0  0  0  0  0  0  0  0
  -30.0226   -7.2409   -6.6499 C   0  0  0  0  0  0  0  0  0  0  0  0
  -30.9677   -8.1359   -7.1769 C   0  0  0  0  0  0  0  0  0  0  0  0
  -30.7586   -9.5142   -7.1284 C   0  0  0  0  0  0  0  0  0  0  0  0
  -29.6086  -10.0194   -6.5267 C   0  0  0  0  0  0  0  0  0  0  0  0
  -28.6867   -9.1471   -5.9470 C   0  0  0  0  0  0  0  0  0  0  0  0
  -28.9038   -7.7713   -6.0031 C   0  0  0  0  0  0  0  0  0  0  0  0
  -28.0007   -6.9437   -5.4547 F   0  0  0  0  0  0  0  0  0  0  0  0
  -27.4011   -1.6464   -7.5517 O   0  0  0  0  0  0  0  0  0  0  0  0
  -27.5263   -2.4805   -8.7078 C   0  0  0  0  0  0  0  0  0  0  0  0
  -27.8743   -1.6102   -9.9213 C   0  0  0  0  0  0  0  0  0  0  0  0
  -27.0546   -2.0160  -11.1491 C   0  0  0  0  0  0  0  0  0  0  0  0
  -26.4797   -0.8187  -11.9020 C   0  0  0  0  0  0  0  0  0  0  0  0
  -24.9677   -0.7804  -11.7918 C   0  0  0  0  0  0  0  0  0  0  0  0
  -24.2814    0.2299  -11.9244 O   0  0  0  0  0  0  0  0  0  0  0  0
  -24.4001   -2.0044  -11.5243 N   0  0  0  0  0  0  0  0  0  0  0  0
  -23.0016   -1.9796  -11.3030 O   0  0  0  0  0  0  0  0  0  0  0  0
  -24.9113   -2.7678  -11.0960 H   0  0  0  0  0  0  0  0  0  0  0  0
  -22.7819   -1.0339  -11.4624 H   0  0  0  0  0  0  0  0  0  0  0  0
 11 12  1  0  0  0
 12  1  1  0  0  0
  1  2  1  0  0  0
  1 10  2  0  0  0
  2  3  2  0  0  0
  3  4  1  0  0  0
  3  8  1  0  0  0
  4  5  2  0  0  0
  5  6  1  0  0  0
  6  7  2  0  0  0
  7 13  1  0  0  0
  7  8  1  0  0  0
 13 15  1  0  0  0
 13 14  1  0  0  0
 15 16  1  0  0  0
 15 20  2  0  0  0
 16 17  2  0  0  0
 17 18  1  0  0  0
 18 19  2  0  0  0
 19 20  1  0  0  0
 20 21  1  0  0  0
  8  9  2  0  0  0
  9 10  1  0  0  0
 10 22  1  0  0  0
 22 23  1  0  0  0
 23 24  1  0  0  0
 24 25  1  0  0  0
 25 26  1  0  0  0
 26 27  1  0  0  0
 27 28  2  0  0  0
 27 29  1  0  0  0
 29 30  1  0  0  0
 29 31  1  0  0  0
 30 32  1  0  0  0
M  END
> <minimizedAffinity>
-8.32002

$$$$
