CHEMBL1996066


 25 28  0  0  0  0  0  0  0  0999 V2000
  -27.8172   -1.5758   -8.0720 C   0  0  0  0  0  0  0  0  0  0  0  0
  -27.9496   -0.3473   -7.4235 C   0  0  0  0  0  0  0  0  0  0  0  0
  -28.4874   -0.2786   -6.1308 C   0  0  0  0  0  0  0  0  0  0  0  0
  -28.8802   -1.4631   -5.4833 C   0  0  0  0  0  0  0  0  0  0  0  0
  -29.4593   -1.6182   -4.2571 N   0  0  0  0  0  0  0  0  0  0  0  0
  -29.6559   -2.9067   -4.1168 C   0  0  0  0  0  0  0  0  0  0  0  0
  -30.1618   -3.4837   -3.0098 N   0  0  0  0  0  0  0  0  0  0  0  0
  -29.1960   -3.6356   -5.2180 N   0  0  0  0  0  0  0  0  0  0  0  0
  -28.7095   -2.6895   -6.1230 C   0  0  0  0  0  0  0  0  0  0  0  0
  -28.2073   -2.7644   -7.4372 C   0  0  0  0  0  0  0  0  0  0  0  0
  -30.6051   -2.8878   -2.3216 H   0  0  0  0  0  0  0  0  0  0  0  0
  -30.5166   -4.4411   -3.0481 H   0  0  0  0  0  0  0  0  0  0  0  0
  -29.2474   -5.0320   -5.3560 C   0  0  0  0  0  0  0  0  0  0  0  0
  -30.1875   -5.6709   -6.0224 N   0  0  0  0  0  0  0  0  0  0  0  0
  -29.8965   -7.0314   -6.0140 C   0  0  0  0  0  0  0  0  0  0  0  0
  -28.8032   -7.3892   -5.2466 C   0  0  0  0  0  0  0  0  0  0  0  0
  -28.0843   -5.9963   -4.5677 S   0  0  0  0  0  0  0  0  0  0  0  0
  -30.6676   -7.9927   -6.7903 C   0  0  0  0  0  0  0  0  0  0  0  0
  -30.0069   -8.9324   -7.5929 C   0  0  0  0  0  0  0  0  0  0  0  0
  -30.7348   -9.8767   -8.3224 C   0  0  0  0  0  0  0  0  0  0  0  0
  -32.1271   -9.8863   -8.2600 C   0  0  0  0  0  0  0  0  0  0  0  0
  -32.7947   -8.9579   -7.4641 C   0  0  0  0  0  0  0  0  0  0  0  0
  -32.0688   -8.0166   -6.7320 C   0  0  0  0  0  0  0  0  0  0  0  0
  -26.8732   -1.7010  -10.4866 N   0  0  0  0  0  0  0  0  0  0  0  0
  -27.2854   -1.6385   -9.4038 C   0  0  0  0  0  0  0  0  0  0  0  0
 24 25  3  0  0  0
 25  1  1  0  0  0
  1  2  1  0  0  0
  1 10  2  0  0  0
  2  3  2  0  0  0
  3  4  1  0  0  0
  4  5  1  0  0  0
  4  9  2  0  0  0
  5  6  2  0  0  0
  6  7  1  0  0  0
  6  8  1  0  0  0
  7 11  1  0  0  0
  7 12  1  0  0  0
  8 13  1  0  0  0
  8  9  1  0  0  0
 13 14  2  0  0  0
 13 17  1  0  0  0
 14 15  1  0  0  0
 15 18  1  0  0  0
 15 16  2  0  0  0
 18 19  1  0  0  0
 18 23  2  0  0  0
 19 20  2  0  0  0
 20 21  1  0  0  0
 21 22  2  0  0  0
 22 23  1  0  0  0
 16 17  1  0  0  0
  9 10  1  0  0  0
M  END
> <minimizedAffinity>
-8.02932

$$$$
