CHEMBL4787977


 33 36  0  0  0  0  0  0  0  0999 V2000
  -13.2689   -1.8571  -13.2858 C   0  0  0  0  0  0  0  0  0  0  0  0
  -13.2354   -0.5194  -13.6723 C   0  0  0  0  0  0  0  0  0  0  0  0
  -14.4219    0.1781  -13.9258 C   0  0  0  0  0  0  0  0  0  0  0  0
  -15.6653   -0.4502  -13.8200 C   0  0  0  0  0  0  0  0  0  0  0  0
  -15.6939   -1.8184  -13.5433 C   0  0  0  0  0  0  0  0  0  0  0  0
  -14.5054   -2.5127  -13.2898 C   0  0  0  0  0  0  0  0  0  0  0  0
  -16.9039    0.2280  -13.9402 N   0  0  0  0  0  0  0  0  0  0  0  0
  -17.2929    1.0106  -15.0127 C   0  0  0  0  0  0  0  0  0  0  0  0
  -16.6675    1.1504  -16.0627 O   0  0  0  0  0  0  0  0  0  0  0  0
  -17.5283    0.1471  -13.1499 H   0  0  0  0  0  0  0  0  0  0  0  0
  -18.5807    1.7537  -14.9041 C   0  0  0  0  0  0  0  0  0  0  0  0
  -18.7609    3.0769  -15.3241 C   0  0  0  0  0  0  0  0  0  0  0  0
  -20.0363    3.6549  -15.2706 C   0  0  0  0  0  0  0  0  0  0  0  0
  -21.1322    2.9190  -14.8115 C   0  0  0  0  0  0  0  0  0  0  0  0
  -20.9516    1.6030  -14.3966 C   0  0  0  0  0  0  0  0  0  0  0  0
  -22.5720    0.4755  -13.7521 I   0  0  0  0  0  0  0  0  0  0  0  0
  -19.6865    1.0245  -14.4372 C   0  0  0  0  0  0  0  0  0  0  0  0
  -12.0773   -2.5262  -12.9440 N   0  0  0  0  0  0  0  0  0  0  0  0
  -11.2455   -1.9705  -13.1114 H   0  0  0  0  0  0  0  0  0  0  0  0
  -12.5353   -7.4859  -11.9033 C   0  0  0  0  0  0  0  0  0  0  0  0
  -12.1613   -6.8042  -10.7313 C   0  0  0  0  0  0  0  0  0  0  0  0
  -11.9293   -5.4376  -10.7053 C   0  0  0  0  0  0  0  0  0  0  0  0
  -11.6945   -4.8528   -9.5279 N   0  0  0  0  0  0  0  0  0  0  0  0
  -11.5783   -3.5218   -9.5354 C   0  0  0  0  0  0  0  0  0  0  0  0
  -11.6785   -2.7313  -10.6043 N   0  0  0  0  0  0  0  0  0  0  0  0
  -11.8933   -3.3326  -11.7898 C   0  0  0  0  0  0  0  0  0  0  0  0
  -12.0039   -4.7270  -11.9039 C   0  0  0  0  0  0  0  0  0  0  0  0
  -12.2377   -5.4274  -13.1075 C   0  0  0  0  0  0  0  0  0  0  0  0
  -12.5168   -6.7981  -13.1200 C   0  0  0  0  0  0  0  0  0  0  0  0
  -11.8683   -9.7445  -12.1505 C   0  0  0  0  0  0  0  0  0  0  0  0
  -12.9087   -8.8035  -11.8634 O   0  0  0  0  0  0  0  0  0  0  0  0
  -12.7741   -7.2405  -14.3854 O   0  0  0  0  0  0  0  0  0  0  0  0
  -14.0047   -6.9265  -15.0119 C   0  0  0  0  0  0  0  0  0  0  0  0
 30 31  1  0  0  0
 31 20  1  0  0  0
 20 21  1  0  0  0
 20 29  2  0  0  0
 21 22  2  0  0  0
 22 23  1  0  0  0
 22 27  1  0  0  0
 23 24  2  0  0  0
 24 25  1  0  0  0
 25 26  2  0  0  0
 26 18  1  0  0  0
 26 27  1  0  0  0
 18  1  1  0  0  0
 18 19  1  0  0  0
  1  2  1  0  0  0
  1  6  2  0  0  0
  2  3  2  0  0  0
  3  4  1  0  0  0
  4  7  1  0  0  0
  4  5  2  0  0  0
  7  8  1  0  0  0
  7 10  1  0  0  0
  8  9  2  0  0  0
  8 11  1  0  0  0
 11 12  1  0  0  0
 11 17  2  0  0  0
 12 13  2  0  0  0
 13 14  1  0  0  0
 14 15  2  0  0  0
 15 16  1  0  0  0
 15 17  1  0  0  0
  5  6  1  0  0  0
 27 28  2  0  0  0
 28 29  1  0  0  0
 29 32  1  0  0  0
 32 33  1  0  0  0
M  END
> <minimizedAffinity>
-8.28759

$$$$
