CHEMBL4591664


 36 39  0  0  0  0  0  0  0  0999 V2000
  -15.4018    2.5110  -16.7385 C   0  0  0  0  0  0  0  0  0  0  0  0
  -15.1158    1.1735  -17.0241 C   0  0  0  0  0  0  0  0  0  0  0  0
  -14.5296    0.5483  -15.9227 C   0  0  0  0  0  0  0  0  0  0  0  0
  -13.3115   -0.1439  -16.0398 C   0  0  0  0  0  0  0  0  0  0  0  0
  -12.4842   -0.2203  -14.9223 C   0  0  0  0  0  0  0  0  0  0  0  0
  -12.9613    0.2199  -13.6830 C   0  0  0  0  0  0  0  0  0  0  0  0
  -14.2380    0.7652  -13.5511 C   0  0  0  0  0  0  0  0  0  0  0  0
  -14.9994    1.0008  -14.6723 C   0  0  0  0  0  0  0  0  0  0  0  0
  -16.0543    1.8295  -14.5987 N   0  0  0  0  0  0  0  0  0  0  0  0
  -16.3596    2.5137  -15.7215 C   0  0  0  0  0  0  0  0  0  0  0  0
  -12.2581    5.5015  -16.6669 C   0  0  0  0  0  0  0  0  0  0  0  0
  -13.1965    5.4277  -15.6456 C   0  0  0  0  0  0  0  0  0  0  0  0
  -14.0455    4.3172  -15.5406 C   0  0  0  0  0  0  0  0  0  0  0  0
  -14.0611    3.2916  -16.5155 C   0  0  0  0  0  0  0  0  0  0  0  0
  -13.0131    3.3140  -17.4585 C   0  0  0  0  0  0  0  0  0  0  0  0
  -12.1333    4.4155  -17.5389 C   0  0  0  0  0  0  0  0  0  0  0  0
  -11.6186    7.7240  -16.0955 C   0  0  0  0  0  0  0  0  0  0  0  0
  -11.4712    6.5879  -16.9438 O   0  0  0  0  0  0  0  0  0  0  0  0
  -11.1766   -0.6127  -14.9029 O   0  0  0  0  0  0  0  0  0  0  0  0
  -10.7373   -1.4088  -13.8120 C   0  0  0  0  0  0  0  0  0  0  0  0
  -17.6879    2.9059  -15.9994 N   0  0  0  0  0  0  0  0  0  0  0  0
  -17.7343    3.9050  -16.1635 H   0  0  0  0  0  0  0  0  0  0  0  0
  -18.8925    2.4106  -15.4440 C   0  0  0  0  0  0  0  0  0  0  0  0
  -19.8497    3.3231  -14.9856 C   0  0  0  0  0  0  0  0  0  0  0  0
  -20.9842    2.8956  -14.2801 C   0  0  0  0  0  0  0  0  0  0  0  0
  -21.2018    1.5425  -14.0271 C   0  0  0  0  0  0  0  0  0  0  0  0
  -20.3450    0.6206  -14.6279 C   0  0  0  0  0  0  0  0  0  0  0  0
  -19.2239    1.0548  -15.3569 C   0  0  0  0  0  0  0  0  0  0  0  0
  -22.2022    1.0570  -13.1525 N   0  0  0  0  0  0  0  0  0  0  0  0
  -23.3511    0.3863  -13.5132 C   0  0  0  0  0  0  0  0  0  0  0  0
  -23.6405   -0.0405  -14.6244 O   0  0  0  0  0  0  0  0  0  0  0  0
  -22.1514    1.3582  -12.1849 H   0  0  0  0  0  0  0  0  0  0  0  0
  -24.3336    0.1612  -12.3515 C   0  0  0  0  0  0  0  0  0  0  0  0
  -24.5653   -1.2760  -12.0652 N   0  0  0  0  0  0  0  0  0  0  0  0
  -23.3402   -1.9181  -11.5639 C   0  0  0  0  0  0  0  0  0  0  0  0
  -25.6055   -1.3851  -11.0321 C   0  0  0  0  0  0  0  0  0  0  0  0
 17 18  1  0  0  0
 18 11  1  0  0  0
 11 12  1  0  0  0
 11 16  2  0  0  0
 12 13  2  0  0  0
 13 14  1  0  0  0
 14  1  1  0  0  0
 14 15  2  0  0  0
  1  2  1  0  0  0
  1 10  2  0  0  0
  2  3  2  0  0  0
  3  4  1  0  0  0
  3  8  1  0  0  0
  4  5  2  0  0  0
  5 19  1  0  0  0
  5  6  1  0  0  0
 19 20  1  0  0  0
  6  7  2  0  0  0
  7  8  1  0  0  0
  8  9  2  0  0  0
  9 10  1  0  0  0
 10 21  1  0  0  0
 21 23  1  0  0  0
 21 22  1  0  0  0
 23 24  1  0  0  0
 23 28  2  0  0  0
 24 25  2  0  0  0
 25 26  1  0  0  0
 26 29  1  0  0  0
 26 27  2  0  0  0
 29 30  1  0  0  0
 29 32  1  0  0  0
 30 31  2  0  0  0
 30 33  1  0  0  0
 33 34  1  0  0  0
 34 35  1  0  0  0
 34 36  1  0  0  0
 27 28  1  0  0  0
 15 16  1  0  0  0
M  END
> <minimizedAffinity>
-7.46110

$$$$
