CHEMBL270092


 36 40  0  0  0  0  0  0  0  0999 V2000
  -14.3528   -1.1195  -14.8152 C   0  0  0  0  0  0  0  0  0  0  0  0
  -15.5126   -1.0182  -14.0548 C   0  0  0  0  0  0  0  0  0  0  0  0
  -16.3703    0.0765  -14.2120 C   0  0  0  0  0  0  0  0  0  0  0  0
  -16.0633    1.1455  -15.0930 C   0  0  0  0  0  0  0  0  0  0  0  0
  -16.8575    2.3099  -15.3113 C   0  0  0  0  0  0  0  0  0  0  0  0
  -16.4358    3.3059  -16.2140 C   0  0  0  0  0  0  0  0  0  0  0  0
  -15.2393    3.1815  -16.9058 C   0  0  0  0  0  0  0  0  0  0  0  0
  -14.4658    2.0425  -16.7277 C   0  0  0  0  0  0  0  0  0  0  0  0
  -14.8665    1.0240  -15.8503 C   0  0  0  0  0  0  0  0  0  0  0  0
  -14.0639   -0.1218  -15.7434 C   0  0  0  0  0  0  0  0  0  0  0  0
  -18.2073    2.5490  -14.7207 C   0  0  0  0  0  0  0  0  0  0  0  0
  -18.2880    3.4011  -13.8409 O   0  0  0  0  0  0  0  0  0  0  0  0
  -19.2359    1.7326  -15.1550 N   0  0  0  0  0  0  0  0  0  0  0  0
  -18.9857    0.9650  -15.7662 H   0  0  0  0  0  0  0  0  0  0  0  0
  -20.5765    1.7641  -14.7003 C   0  0  0  0  0  0  0  0  0  0  0  0
  -21.2998    2.9432  -14.4875 C   0  0  0  0  0  0  0  0  0  0  0  0
  -22.5949    2.9063  -13.9594 C   0  0  0  0  0  0  0  0  0  0  0  0
  -23.1859    1.6858  -13.6475 C   0  0  0  0  0  0  0  0  0  0  0  0
  -22.4876    0.5076  -13.8958 C   0  0  0  0  0  0  0  0  0  0  0  0
  -23.2146   -1.0066  -13.5173 Cl  0  0  0  0  0  0  0  0  0  0  0  0
  -21.1969    0.5394  -14.4309 C   0  0  0  0  0  0  0  0  0  0  0  0
  -13.5779   -2.2286  -14.5572 O   0  0  0  0  0  0  0  0  0  0  0  0
  -13.7848   -4.4425   -9.8833 C   0  0  0  0  0  0  0  0  0  0  0  0
  -12.5895   -3.7237  -10.0293 C   0  0  0  0  0  0  0  0  0  0  0  0
  -12.2795   -3.0298  -11.1879 C   0  0  0  0  0  0  0  0  0  0  0  0
  -11.1022   -2.3805  -11.2317 N   0  0  0  0  0  0  0  0  0  0  0  0
  -10.7751   -1.7186  -12.3605 C   0  0  0  0  0  0  0  0  0  0  0  0
  -11.5959   -1.6481  -13.4649 C   0  0  0  0  0  0  0  0  0  0  0  0
  -12.8238   -2.3013  -13.4047 C   0  0  0  0  0  0  0  0  0  0  0  0
  -13.1880   -3.0491  -12.2607 C   0  0  0  0  0  0  0  0  0  0  0  0
  -14.3943   -3.7781  -12.1062 C   0  0  0  0  0  0  0  0  0  0  0  0
  -14.7296   -4.4055  -10.9062 C   0  0  0  0  0  0  0  0  0  0  0  0
  -12.9383   -5.2983   -7.8715 C   0  0  0  0  0  0  0  0  0  0  0  0
  -14.0469   -5.1911   -8.7653 O   0  0  0  0  0  0  0  0  0  0  0  0
  -15.9718   -4.9792  -10.8984 O   0  0  0  0  0  0  0  0  0  0  0  0
  -16.3761   -5.5924  -12.1208 C   0  0  0  0  0  0  0  0  0  0  0  0
 33 34  1  0  0  0
 34 23  1  0  0  0
 23 24  1  0  0  0
 23 32  2  0  0  0
 24 25  2  0  0  0
 25 26  1  0  0  0
 25 30  1  0  0  0
 26 27  2  0  0  0
 27 28  1  0  0  0
 28 29  2  0  0  0
 29 22  1  0  0  0
 29 30  1  0  0  0
 22  1  1  0  0  0
  1  2  1  0  0  0
  1 10  2  0  0  0
  2  3  2  0  0  0
  3  4  1  0  0  0
  4  5  1  0  0  0
  4  9  2  0  0  0
  5 11  1  0  0  0
  5  6  2  0  0  0
 11 12  2  0  0  0
 11 13  1  0  0  0
 13 15  1  0  0  0
 13 14  1  0  0  0
 15 16  1  0  0  0
 15 21  2  0  0  0
 16 17  2  0  0  0
 17 18  1  0  0  0
 18 19  2  0  0  0
 19 20  1  0  0  0
 19 21  1  0  0  0
  6  7  1  0  0  0
  7  8  2  0  0  0
  8  9  1  0  0  0
  9 10  1  0  0  0
 30 31  2  0  0  0
 31 32  1  0  0  0
 32 35  1  0  0  0
 35 36  1  0  0  0
M  END
> <minimizedAffinity>
-9.20790

$$$$
