CHEMBL3964861


 37 40  0  0  0  0  0  0  0  0999 V2000
  -15.2347   -2.9375  -11.9135 C   0  0  0  0  0  0  0  0  0  0  0  0
  -16.3160   -3.8154  -11.8280 C   0  0  0  0  0  0  0  0  0  0  0  0
  -16.1294   -5.1601  -11.5191 C   0  0  0  0  0  0  0  0  0  0  0  0
  -14.8445   -5.6841  -11.4022 C   0  0  0  0  0  0  0  0  0  0  0  0
  -13.7498   -4.8231  -11.5112 C   0  0  0  0  0  0  0  0  0  0  0  0
  -13.9422   -3.4552  -11.7713 C   0  0  0  0  0  0  0  0  0  0  0  0
  -16.2397   -1.5978  -14.2500 O   0  0  0  0  0  0  0  0  0  0  0  0
  -15.9071   -0.9655  -13.2556 C   0  0  0  0  0  0  0  0  0  0  0  0
  -15.4005   -1.5428  -12.0981 N   0  0  0  0  0  0  0  0  0  0  0  0
  -16.0306    0.4075  -13.1456 N   0  0  0  0  0  0  0  0  0  0  0  0
  -15.3668   -0.9702  -11.2694 H   0  0  0  0  0  0  0  0  0  0  0  0
  -15.6452    0.8399  -12.3213 H   0  0  0  0  0  0  0  0  0  0  0  0
  -16.6138    1.2612  -14.1130 C   0  0  0  0  0  0  0  0  0  0  0  0
  -15.9041    1.8517  -15.1617 C   0  0  0  0  0  0  0  0  0  0  0  0
  -16.5496    2.6794  -16.0722 C   0  0  0  0  0  0  0  0  0  0  0  0
  -15.8495    3.2474  -17.0640 F   0  0  0  0  0  0  0  0  0  0  0  0
  -17.9116    2.9241  -15.9755 C   0  0  0  0  0  0  0  0  0  0  0  0
  -18.6525    2.3189  -14.9560 C   0  0  0  0  0  0  0  0  0  0  0  0
  -17.9914    1.5027  -14.0161 C   0  0  0  0  0  0  0  0  0  0  0  0
  -20.1455    2.5035  -14.8780 C   0  0  0  0  0  0  0  0  0  0  0  0
  -20.8353    1.3344  -14.7787 F   0  0  0  0  0  0  0  0  0  0  0  0
  -20.5122    3.2472  -13.7978 F   0  0  0  0  0  0  0  0  0  0  0  0
  -20.6494    3.1488  -15.9647 F   0  0  0  0  0  0  0  0  0  0  0  0
  -14.5854   -7.0179  -11.1491 O   0  0  0  0  0  0  0  0  0  0  0  0
  -13.9561   -7.7759  -12.1202 C   0  0  0  0  0  0  0  0  0  0  0  0
  -13.0121   -8.7572  -11.8281 C   0  0  0  0  0  0  0  0  0  0  0  0
  -12.3915   -9.3895  -12.8781 C   0  0  0  0  0  0  0  0  0  0  0  0
  -12.7055   -9.1625  -14.1620 N   0  0  0  0  0  0  0  0  0  0  0  0
  -13.6743   -8.2764  -14.4492 C   0  0  0  0  0  0  0  0  0  0  0  0
  -14.3252   -7.5552  -13.4513 C   0  0  0  0  0  0  0  0  0  0  0  0
  -14.0366   -8.0814  -15.7937 N   0  0  0  0  0  0  0  0  0  0  0  0
  -13.2030   -7.5111  -16.7380 C   0  0  0  0  0  0  0  0  0  0  0  0
  -12.0790   -7.0681  -16.5827 O   0  0  0  0  0  0  0  0  0  0  0  0
  -14.9470   -8.4011  -16.0812 H   0  0  0  0  0  0  0  0  0  0  0  0
  -13.8003   -7.4847  -18.1119 C   0  0  0  0  0  0  0  0  0  0  0  0
  -12.9677   -6.9531  -19.2575 C   0  0  0  0  0  0  0  0  0  0  0  0
  -14.1495   -6.1662  -18.7728 C   0  0  0  0  0  0  0  0  0  0  0  0
  7  8  2  0  0  0
  8  9  1  0  0  0
  8 10  1  0  0  0
  9  1  1  0  0  0
  9 11  1  0  0  0
  1  2  1  0  0  0
  1  6  2  0  0  0
  2  3  2  0  0  0
  3  4  1  0  0  0
  4 24  1  0  0  0
  4  5  2  0  0  0
 24 25  1  0  0  0
 25 26  1  0  0  0
 25 30  2  0  0  0
 26 27  2  0  0  0
 27 28  1  0  0  0
 28 29  2  0  0  0
 29 31  1  0  0  0
 29 30  1  0  0  0
 31 32  1  0  0  0
 31 34  1  0  0  0
 32 33  2  0  0  0
 32 35  1  0  0  0
 35 36  1  0  0  0
 35 37  1  0  0  0
 36 37  1  0  0  0
  5  6  1  0  0  0
 10 13  1  0  0  0
 10 12  1  0  0  0
 13 14  1  0  0  0
 13 19  2  0  0  0
 14 15  2  0  0  0
 15 16  1  0  0  0
 15 17  1  0  0  0
 17 18  2  0  0  0
 18 20  1  0  0  0
 18 19  1  0  0  0
 20 21  1  0  0  0
 20 22  1  0  0  0
 20 23  1  0  0  0
M  END
> <minimizedAffinity>
-9.24408

$$$$
