CHEMBL3775511


 26 28  0  0  0  0  0  0  0  0999 V2000
  -28.0422   -1.8240   -5.2891 C   0  0  0  0  0  0  0  0  0  0  0  0
  -28.7617   -2.5011   -4.2858 C   0  0  0  0  0  0  0  0  0  0  0  0
  -29.4984   -3.6509   -4.5384 C   0  0  0  0  0  0  0  0  0  0  0  0
  -30.0728   -4.2943   -3.5185 N   0  0  0  0  0  0  0  0  0  0  0  0
  -30.7190   -5.4285   -3.8143 C   0  0  0  0  0  0  0  0  0  0  0  0
  -30.8395   -5.9771   -5.0248 N   0  0  0  0  0  0  0  0  0  0  0  0
  -30.2853   -5.3038   -6.0513 C   0  0  0  0  0  0  0  0  0  0  0  0
  -29.5855   -4.1019   -5.8558 C   0  0  0  0  0  0  0  0  0  0  0  0
  -28.9771   -3.3536   -6.8861 C   0  0  0  0  0  0  0  0  0  0  0  0
  -28.1883   -2.2315   -6.6177 C   0  0  0  0  0  0  0  0  0  0  0  0
  -27.8673    0.5118   -4.9294 C   0  0  0  0  0  0  0  0  0  0  0  0
  -27.2259   -0.7667   -4.9842 O   0  0  0  0  0  0  0  0  0  0  0  0
  -30.3718   -5.8420   -7.3605 N   0  0  0  0  0  0  0  0  0  0  0  0
  -30.0085   -5.1506   -8.0165 H   0  0  0  0  0  0  0  0  0  0  0  0
  -29.9489   -7.1444   -7.7359 C   0  0  0  0  0  0  0  0  0  0  0  0
  -30.7608   -8.2888   -7.6370 C   0  0  0  0  0  0  0  0  0  0  0  0
  -32.4312   -8.2156   -7.1812 Cl  0  0  0  0  0  0  0  0  0  0  0  0
  -30.2585   -9.5460   -7.9872 C   0  0  0  0  0  0  0  0  0  0  0  0
  -28.9598   -9.6866   -8.4763 C   0  0  0  0  0  0  0  0  0  0  0  0
  -28.1621   -8.5562   -8.6213 C   0  0  0  0  0  0  0  0  0  0  0  0
  -26.8977   -8.6564   -9.1224 O   0  0  0  0  0  0  0  0  0  0  0  0
  -28.6531   -7.3035   -8.2563 C   0  0  0  0  0  0  0  0  0  0  0  0
  -27.8760   -6.2130   -8.3990 F   0  0  0  0  0  0  0  0  0  0  0  0
  -26.7015   -9.5867   -9.3206 H   0  0  0  0  0  0  0  0  0  0  0  0
  -27.6505   -1.7231   -7.7638 O   0  0  0  0  0  0  0  0  0  0  0  0
  -27.6113   -2.5024   -8.9450 C   0  0  0  0  0  0  0  0  0  0  0  0
 11 12  1  0  0  0
 12  1  1  0  0  0
  1  2  1  0  0  0
  1 10  2  0  0  0
  2  3  2  0  0  0
  3  4  1  0  0  0
  3  8  1  0  0  0
  4  5  2  0  0  0
  5  6  1  0  0  0
  6  7  2  0  0  0
  7 13  1  0  0  0
  7  8  1  0  0  0
 13 15  1  0  0  0
 13 14  1  0  0  0
 15 16  1  0  0  0
 15 22  2  0  0  0
 16 17  1  0  0  0
 16 18  2  0  0  0
 18 19  1  0  0  0
 19 20  2  0  0  0
 20 21  1  0  0  0
 20 22  1  0  0  0
 21 24  1  0  0  0
 22 23  1  0  0  0
  8  9  2  0  0  0
  9 10  1  0  0  0
 10 25  1  0  0  0
 25 26  1  0  0  0
M  END
> <minimizedAffinity>
-7.82255

$$$$
