CHEMBL517469


 41 46  0  0  0  0  0  0  0  0999 V2000
  -24.1860   -0.5657  -13.0417 C   0  0  0  0  0  0  0  0  0  0  0  0
  -25.3746   -1.1704  -13.4439 C   0  0  0  0  0  0  0  0  0  0  0  0
  -26.1982   -1.8077  -12.5110 C   0  0  0  0  0  0  0  0  0  0  0  0
  -25.8544   -1.8604  -11.1519 C   0  0  0  0  0  0  0  0  0  0  0  0
  -24.7073   -1.1624  -10.7412 C   0  0  0  0  0  0  0  0  0  0  0  0
  -23.8831   -0.5194  -11.6841 C   0  0  0  0  0  0  0  0  0  0  0  0
  -22.7448    0.0515  -11.2637 F   0  0  0  0  0  0  0  0  0  0  0  0
  -26.5575   -2.6690  -10.2175 N   0  0  0  0  0  0  0  0  0  0  0  0
  -27.2410   -2.2106   -9.1074 C   0  0  0  0  0  0  0  0  0  0  0  0
  -27.1471   -1.0743   -8.6413 O   0  0  0  0  0  0  0  0  0  0  0  0
  -28.1035   -3.1189   -8.5047 N   0  0  0  0  0  0  0  0  0  0  0  0
  -28.9474   -2.6563   -7.4276 C   0  0  0  0  0  0  0  0  0  0  0  0
  -29.7973   -3.8559   -7.0767 C   0  0  0  0  0  0  0  0  0  0  0  0
  -28.9710   -4.9690   -7.4825 N   0  0  0  0  0  0  0  0  0  0  0  0
  -28.0129   -4.5333   -8.4319 C   0  0  0  0  0  0  0  0  0  0  0  0
  -27.2614   -5.2098   -9.1244 O   0  0  0  0  0  0  0  0  0  0  0  0
  -26.5940   -3.6729  -10.3818 H   0  0  0  0  0  0  0  0  0  0  0  0
  -29.1700   -6.2836   -6.9853 C   0  0  0  0  0  0  0  0  0  0  0  0
  -29.9152   -7.2202   -7.7109 C   0  0  0  0  0  0  0  0  0  0  0  0
  -30.0538   -8.5389   -7.2556 C   0  0  0  0  0  0  0  0  0  0  0  0
  -29.4685   -8.9407   -6.0586 C   0  0  0  0  0  0  0  0  0  0  0  0
  -28.7321   -8.0238   -5.3160 C   0  0  0  0  0  0  0  0  0  0  0  0
  -28.5830   -6.7169   -5.7815 C   0  0  0  0  0  0  0  0  0  0  0  0
  -27.8687   -5.8753   -5.0179 F   0  0  0  0  0  0  0  0  0  0  0  0
  -23.2539   -0.4141  -14.0344 O   0  0  0  0  0  0  0  0  0  0  0  0
  -18.8326    1.0635  -15.0944 C   0  0  0  0  0  0  0  0  0  0  0  0
  -19.3475    2.3223  -14.9066 C   0  0  0  0  0  0  0  0  0  0  0  0
  -20.7444    2.2844  -14.6457 C   0  0  0  0  0  0  0  0  0  0  0  0
  -21.4676    3.3763  -14.2767 N   0  0  0  0  0  0  0  0  0  0  0  0
  -22.7285    3.1405  -13.8923 C   0  0  0  0  0  0  0  0  0  0  0  0
  -23.3253    1.8991  -13.8825 C   0  0  0  0  0  0  0  0  0  0  0  0
  -22.6065    0.7817  -14.3159 C   0  0  0  0  0  0  0  0  0  0  0  0
  -21.2711    0.9830  -14.7005 C   0  0  0  0  0  0  0  0  0  0  0  0
  -20.0496   -0.1227  -15.1873 S   0  0  0  0  0  0  0  0  0  0  0  0
  -15.3704    0.1908  -14.5414 N   0  0  0  0  0  0  0  0  0  0  0  0
  -15.3121    0.9888  -15.6464 C   0  0  0  0  0  0  0  0  0  0  0  0
  -16.5136    1.3540  -16.0340 N   0  0  0  0  0  0  0  0  0  0  0  0
  -17.3741    0.7880  -15.1222 C   0  0  0  0  0  0  0  0  0  0  0  0
  -16.6823    0.0374  -14.2000 C   0  0  0  0  0  0  0  0  0  0  0  0
  -14.5455   -1.7581  -13.3091 C   0  0  0  0  0  0  0  0  0  0  0  0
  -14.2435   -0.3649  -13.8263 C   0  0  0  0  0  0  0  0  0  0  0  0
 40 41  1  0  0  0
 41 35  1  0  0  0
 35 36  1  0  0  0
 35 39  1  0  0  0
 36 37  2  0  0  0
 37 38  1  0  0  0
 38 26  1  0  0  0
 38 39  2  0  0  0
 26 27  2  0  0  0
 26 34  1  0  0  0
 27 28  1  0  0  0
 28 29  1  0  0  0
 28 33  2  0  0  0
 29 30  2  0  0  0
 30 31  1  0  0  0
 31 32  2  0  0  0
 32 25  1  0  0  0
 32 33  1  0  0  0
 25  1  1  0  0  0
  1  2  1  0  0  0
  1  6  2  0  0  0
  2  3  2  0  0  0
  3  4  1  0  0  0
  4  8  1  0  0  0
  4  5  2  0  0  0
  8  9  1  0  0  0
  8 17  1  0  0  0
  9 10  2  0  0  0
  9 11  1  0  0  0
 11 12  1  0  0  0
 11 15  1  0  0  0
 12 13  1  0  0  0
 13 14  1  0  0  0
 14 18  1  0  0  0
 14 15  1  0  0  0
 18 19  1  0  0  0
 18 23  2  0  0  0
 19 20  2  0  0  0
 20 21  1  0  0  0
 21 22  2  0  0  0
 22 23  1  0  0  0
 23 24  1  0  0  0
 15 16  2  0  0  0
  5  6  1  0  0  0
  6  7  1  0  0  0
 33 34  1  0  0  0
M  END
> <minimizedAffinity>
-9.13393

$$$$
