CHEMBL371225


 34 37  0  0  0  0  0  0  0  0999 V2000
  -16.8433    2.1060  -15.3314 C   0  0  0  0  0  0  0  0  0  0  0  0
  -17.5280    3.2989  -15.1130 C   0  0  0  0  0  0  0  0  0  0  0  0
  -18.8759    3.3049  -14.7426 C   0  0  0  0  0  0  0  0  0  0  0  0
  -19.6266    2.1271  -14.6915 C   0  0  0  0  0  0  0  0  0  0  0  0
  -18.9794    0.9351  -15.0129 C   0  0  0  0  0  0  0  0  0  0  0  0
  -17.5945    0.9211  -15.2690 C   0  0  0  0  0  0  0  0  0  0  0  0
  -14.8904    2.8714  -16.7194 C   0  0  0  0  0  0  0  0  0  0  0  0
  -13.1782    2.7694  -16.8064 S   0  0  0  0  0  0  0  0  0  0  0  0
  -13.0771    1.8424  -15.4030 C   0  0  0  0  0  0  0  0  0  0  0  0
  -11.8617    1.4975  -14.9427 N   0  0  0  0  0  0  0  0  0  0  0  0
  -11.9183    0.7819  -13.8229 C   0  0  0  0  0  0  0  0  0  0  0  0
  -13.0189    0.3839  -13.1787 N   0  0  0  0  0  0  0  0  0  0  0  0
  -14.2254    0.7298  -13.6763 C   0  0  0  0  0  0  0  0  0  0  0  0
  -15.2924    0.2427  -12.9364 N   0  0  0  0  0  0  0  0  0  0  0  0
  -14.3073    1.5253  -14.8490 C   0  0  0  0  0  0  0  0  0  0  0  0
  -15.3985    2.1384  -15.6410 C   0  0  0  0  0  0  0  0  0  0  0  0
  -14.9790   -0.4392  -12.2536 H   0  0  0  0  0  0  0  0  0  0  0  0
  -16.1157   -0.0090  -13.4660 H   0  0  0  0  0  0  0  0  0  0  0  0
  -15.5533    3.7098  -17.7904 C   0  0  0  0  0  0  0  0  0  0  0  0
  -14.7725    5.6735  -19.2046 C   0  0  0  0  0  0  0  0  0  0  0  0
  -15.1177    5.1757  -17.8106 C   0  0  0  0  0  0  0  0  0  0  0  0
  -20.9950    2.0982  -14.3396 N   0  0  0  0  0  0  0  0  0  0  0  0
  -21.7603    0.9481  -14.2810 C   0  0  0  0  0  0  0  0  0  0  0  0
  -21.3538   -0.1609  -14.6115 O   0  0  0  0  0  0  0  0  0  0  0  0
  -23.0539    1.1755  -13.8339 N   0  0  0  0  0  0  0  0  0  0  0  0
  -21.4596    2.9831  -14.2173 H   0  0  0  0  0  0  0  0  0  0  0  0
  -23.4505    2.0831  -14.0261 H   0  0  0  0  0  0  0  0  0  0  0  0
  -23.9626    0.1143  -13.5909 C   0  0  0  0  0  0  0  0  0  0  0  0
  -24.4782   -0.6719  -14.6289 C   0  0  0  0  0  0  0  0  0  0  0  0
  -25.4640   -1.6243  -14.3863 C   0  0  0  0  0  0  0  0  0  0  0  0
  -25.9180   -1.8306  -13.0899 C   0  0  0  0  0  0  0  0  0  0  0  0
  -25.3674   -1.1057  -12.0258 C   0  0  0  0  0  0  0  0  0  0  0  0
  -25.8597   -1.3353  -10.6276 C   0  0  0  0  0  0  0  0  0  0  0  0
  -24.3774   -0.1400  -12.2812 C   0  0  0  0  0  0  0  0  0  0  0  0
 20 21  1  0  0  0
 21 19  1  0  0  0
 19  7  1  0  0  0
  7  8  1  0  0  0
  7 16  2  0  0  0
  8  9  1  0  0  0
  9 10  1  0  0  0
  9 15  2  0  0  0
 10 11  2  0  0  0
 11 12  1  0  0  0
 12 13  2  0  0  0
 13 14  1  0  0  0
 13 15  1  0  0  0
 14 17  1  0  0  0
 14 18  1  0  0  0
 15 16  1  0  0  0
 16  1  1  0  0  0
  1  2  1  0  0  0
  1  6  2  0  0  0
  2  3  2  0  0  0
  3  4  1  0  0  0
  4 22  1  0  0  0
  4  5  2  0  0  0
 22 23  1  0  0  0
 22 26  1  0  0  0
 23 24  2  0  0  0
 23 25  1  0  0  0
 25 28  1  0  0  0
 25 27  1  0  0  0
 28 29  1  0  0  0
 28 34  2  0  0  0
 29 30  2  0  0  0
 30 31  1  0  0  0
 31 32  2  0  0  0
 32 33  1  0  0  0
 32 34  1  0  0  0
  5  6  1  0  0  0
M  END
> <minimizedAffinity>
-9.21186

$$$$
