CHEMBL3397925


 31 33  0  0  0  0  0  0  0  0999 V2000
  -27.3468   -1.9843  -10.4665 N   0  0  0  0  0  0  0  0  0  0  0  0
  -26.0362   -1.6418  -10.7495 C   0  0  0  0  0  0  0  0  0  0  0  0
  -25.1218   -1.4668   -9.9528 O   0  0  0  0  0  0  0  0  0  0  0  0
  -27.9893   -2.0692  -11.2424 H   0  0  0  0  0  0  0  0  0  0  0  0
  -28.9533   -2.2908   -6.5660 C   0  0  0  0  0  0  0  0  0  0  0  0
  -29.1132   -3.3400   -7.4672 C   0  0  0  0  0  0  0  0  0  0  0  0
  -28.6012   -3.2473   -8.7616 C   0  0  0  0  0  0  0  0  0  0  0  0
  -27.9103   -2.1124   -9.1793 C   0  0  0  0  0  0  0  0  0  0  0  0
  -27.7411   -1.0585   -8.2741 C   0  0  0  0  0  0  0  0  0  0  0  0
  -28.2629   -1.1492   -6.9757 C   0  0  0  0  0  0  0  0  0  0  0  0
  -29.4276   -2.2763   -5.2808 O   0  0  0  0  0  0  0  0  0  0  0  0
  -28.4222   -2.2685   -4.2606 C   0  0  0  0  0  0  0  0  0  0  0  0
  -28.5411   -3.5411   -3.4332 C   0  0  0  0  0  0  0  0  0  0  0  0
  -27.7532   -4.7045   -4.0500 C   0  0  0  0  0  0  0  0  0  0  0  0
  -29.9148   -5.7974   -3.7621 C   0  0  0  0  0  0  0  0  0  0  0  0
  -28.5294   -5.9474   -4.2147 N   0  0  0  0  0  0  0  0  0  0  0  0
  -28.5120   -6.3715   -5.6177 C   0  0  0  0  0  0  0  0  0  0  0  0
  -25.7372   -1.4080  -12.1811 C   0  0  0  0  0  0  0  0  0  0  0  0
  -26.5562   -1.8828  -13.2043 C   0  0  0  0  0  0  0  0  0  0  0  0
  -26.2040   -1.6230  -14.5260 C   0  0  0  0  0  0  0  0  0  0  0  0
  -25.0436   -0.8921  -14.8150 C   0  0  0  0  0  0  0  0  0  0  0  0
  -24.2046   -0.3979  -13.7984 C   0  0  0  0  0  0  0  0  0  0  0  0
  -24.5716   -0.6854  -12.4768 C   0  0  0  0  0  0  0  0  0  0  0  0
  -23.0011    0.4114  -14.1001 C   0  0  0  0  0  0  0  0  0  0  0  0
  -21.8086   -0.1749  -14.5694 C   0  0  0  0  0  0  0  0  0  0  0  0
  -20.6661    0.5933  -14.8281 C   0  0  0  0  0  0  0  0  0  0  0  0
  -20.6963    1.9717  -14.6455 C   0  0  0  0  0  0  0  0  0  0  0  0
  -21.8673    2.5661  -14.1941 C   0  0  0  0  0  0  0  0  0  0  0  0
  -21.9594    3.9139  -14.0181 O   0  0  0  0  0  0  0  0  0  0  0  0
  -22.9966    1.8016  -13.9069 C   0  0  0  0  0  0  0  0  0  0  0  0
  -21.1621    4.3273  -14.3921 H   0  0  0  0  0  0  0  0  0  0  0  0
 15 16  1  0  0  0
 16 17  1  0  0  0
 16 14  1  0  0  0
 14 13  1  0  0  0
 13 12  1  0  0  0
 12 11  1  0  0  0
 11  5  1  0  0  0
  5  6  1  0  0  0
  5 10  2  0  0  0
  6  7  2  0  0  0
  7  8  1  0  0  0
  8  1  1  0  0  0
  8  9  2  0  0  0
  1  2  1  0  0  0
  1  4  1  0  0  0
  2  3  2  0  0  0
  2 18  1  0  0  0
 18 19  1  0  0  0
 18 23  2  0  0  0
 19 20  2  0  0  0
 20 21  1  0  0  0
 21 22  2  0  0  0
 22 24  1  0  0  0
 22 23  1  0  0  0
 24 25  1  0  0  0
 24 30  2  0  0  0
 25 26  2  0  0  0
 26 27  1  0  0  0
 27 28  2  0  0  0
 28 29  1  0  0  0
 28 30  1  0  0  0
 29 31  1  0  0  0
  9 10  1  0  0  0
M  END
> <minimizedAffinity>
-9.68038

$$$$
