CHEMBL2018757


 31 33  0  0  0  0  0  0  0  0999 V2000
  -15.9729   -2.3581  -13.0750 N   0  0  0  0  0  0  0  0  0  0  0  0
  -16.3203   -2.9333  -13.8350 H   0  0  0  0  0  0  0  0  0  0  0  0
  -15.4718   -3.1777  -12.0287 C   0  0  0  0  0  0  0  0  0  0  0  0
  -15.3880   -2.6819  -10.7858 N   0  0  0  0  0  0  0  0  0  0  0  0
  -14.9573   -3.4991   -9.8278 C   0  0  0  0  0  0  0  0  0  0  0  0
  -14.6169   -4.7850   -9.9876 N   0  0  0  0  0  0  0  0  0  0  0  0
  -14.7049   -5.2839  -11.2272 C   0  0  0  0  0  0  0  0  0  0  0  0
  -14.4300   -6.6315  -11.4528 C   0  0  0  0  0  0  0  0  0  0  0  0
  -14.5151   -7.2489  -12.7229 C   0  0  0  0  0  0  0  0  0  0  0  0
  -14.8477   -6.4635  -13.8257 C   0  0  0  0  0  0  0  0  0  0  0  0
  -15.1496   -5.1093  -13.5976 C   0  0  0  0  0  0  0  0  0  0  0  0
  -15.1085   -4.5115  -12.3122 C   0  0  0  0  0  0  0  0  0  0  0  0
  -14.4584   -8.6129  -12.6442 O   0  0  0  0  0  0  0  0  0  0  0  0
  -13.2808   -9.2131  -12.1317 C   0  0  0  0  0  0  0  0  0  0  0  0
  -15.0064   -6.7124  -15.1496 O   0  0  0  0  0  0  0  0  0  0  0  0
  -13.9491   -6.9616  -16.0403 C   0  0  0  0  0  0  0  0  0  0  0  0
  -14.3369    1.2625  -14.5986 C   0  0  0  0  0  0  0  0  0  0  0  0
  -13.5313    0.2418  -14.0837 C   0  0  0  0  0  0  0  0  0  0  0  0
  -14.0836   -0.9434  -13.5924 C   0  0  0  0  0  0  0  0  0  0  0  0
  -15.4641   -1.1297  -13.5483 C   0  0  0  0  0  0  0  0  0  0  0  0
  -16.2683   -0.1165  -14.0808 C   0  0  0  0  0  0  0  0  0  0  0  0
  -15.7302    1.0782  -14.6078 C   0  0  0  0  0  0  0  0  0  0  0  0
  -16.6896    2.0884  -15.1778 C   0  0  0  0  0  0  0  0  0  0  0  0
  -12.9595    3.3359  -14.4524 C   0  0  0  0  0  0  0  0  0  0  0  0
  -12.4901    3.2114  -13.3245 O   0  0  0  0  0  0  0  0  0  0  0  0
  -13.7785    2.4587  -15.1114 N   0  0  0  0  0  0  0  0  0  0  0  0
  -13.9927    2.7254  -16.0607 H   0  0  0  0  0  0  0  0  0  0  0  0
  -12.7049    4.4191  -15.2454 O   0  0  0  0  0  0  0  0  0  0  0  0
  -11.6107    5.2353  -14.7879 C   0  0  0  0  0  0  0  0  0  0  0  0
  -11.1443    7.4941  -13.8222 C   0  0  0  0  0  0  0  0  0  0  0  0
  -11.9178    6.7263  -14.8857 C   0  0  0  0  0  0  0  0  0  0  0  0
 30 31  1  0  0  0
 31 29  1  0  0  0
 29 28  1  0  0  0
 28 24  1  0  0  0
 24 25  2  0  0  0
 24 26  1  0  0  0
 26 17  1  0  0  0
 26 27  1  0  0  0
 17 18  1  0  0  0
 17 22  2  0  0  0
 18 19  2  0  0  0
 19 20  1  0  0  0
 20  1  1  0  0  0
 20 21  2  0  0  0
  1  3  1  0  0  0
  1  2  1  0  0  0
  3  4  1  0  0  0
  3 12  2  0  0  0
  4  5  2  0  0  0
  5  6  1  0  0  0
  6  7  2  0  0  0
  7  8  1  0  0  0
  7 12  1  0  0  0
  8  9  2  0  0  0
  9 13  1  0  0  0
  9 10  1  0  0  0
 13 14  1  0  0  0
 10 15  1  0  0  0
 10 11  2  0  0  0
 15 16  1  0  0  0
 11 12  1  0  0  0
 21 22  1  0  0  0
 22 23  1  0  0  0
M  END
> <minimizedAffinity>
-6.98419

$$$$
