CHEMBL187684


 33 36  0  0  0  0  0  0  0  0999 V2000
  -16.7025    1.2673  -15.1255 C   0  0  0  0  0  0  0  0  0  0  0  0
  -16.6151    2.5458  -15.6722 C   0  0  0  0  0  0  0  0  0  0  0  0
  -17.6588    3.3551  -15.9292 N   0  0  0  0  0  0  0  0  0  0  0  0
  -18.8813    2.8579  -15.6290 C   0  0  0  0  0  0  0  0  0  0  0  0
  -19.1223    1.6007  -15.0634 C   0  0  0  0  0  0  0  0  0  0  0  0
  -17.9969    0.8145  -14.8209 C   0  0  0  0  0  0  0  0  0  0  0  0
  -14.4748   -1.2138  -13.6701 C   0  0  0  0  0  0  0  0  0  0  0  0
  -13.3031   -0.9722  -14.3904 C   0  0  0  0  0  0  0  0  0  0  0  0
  -13.1932   -0.0279  -15.3618 N   0  0  0  0  0  0  0  0  0  0  0  0
  -14.3121    0.6902  -15.5670 C   0  0  0  0  0  0  0  0  0  0  0  0
  -15.5017    0.4718  -14.8813 C   0  0  0  0  0  0  0  0  0  0  0  0
  -15.5830   -0.4928  -13.9183 N   0  0  0  0  0  0  0  0  0  0  0  0
  -14.4581   -2.1615  -12.6006 N   0  0  0  0  0  0  0  0  0  0  0  0
  -13.4993   -2.3170  -12.3006 H   0  0  0  0  0  0  0  0  0  0  0  0
  -15.0675   -6.7730  -14.8042 Cl  0  0  0  0  0  0  0  0  0  0  0  0
  -15.4723   -5.6030  -13.6103 C   0  0  0  0  0  0  0  0  0  0  0  0
  -16.4265   -5.9182  -12.6389 C   0  0  0  0  0  0  0  0  0  0  0  0
  -16.7481   -4.9678  -11.6712 C   0  0  0  0  0  0  0  0  0  0  0  0
  -16.1193   -3.7210  -11.6714 C   0  0  0  0  0  0  0  0  0  0  0  0
  -15.1592   -3.3944  -12.6566 C   0  0  0  0  0  0  0  0  0  0  0  0
  -14.8377   -4.3688  -13.6089 C   0  0  0  0  0  0  0  0  0  0  0  0
  -20.4094    1.2494  -14.6877 N   0  0  0  0  0  0  0  0  0  0  0  0
  -20.5370    0.2843  -14.4006 H   0  0  0  0  0  0  0  0  0  0  0  0
  -21.3337    2.2392  -14.1577 C   0  0  0  0  0  0  0  0  0  0  0  0
  -22.7088    1.6053  -13.9331 C   0  0  0  0  0  0  0  0  0  0  0  0
  -22.5700    0.1861  -13.3810 C   0  0  0  0  0  0  0  0  0  0  0  0
  -23.5399   -0.7788  -14.0494 C   0  0  0  0  0  0  0  0  0  0  0  0
  -24.6805   -1.1277  -13.1305 C   0  0  0  0  0  0  0  0  0  0  0  0
  -24.5161   -1.0730  -11.7447 C   0  0  0  0  0  0  0  0  0  0  0  0
  -25.5861   -1.4137  -10.9334 C   0  0  0  0  0  0  0  0  0  0  0  0
  -26.7891   -1.8081  -11.4031 N   0  0  0  0  0  0  0  0  0  0  0  0
  -26.9233   -1.8649  -12.7454 C   0  0  0  0  0  0  0  0  0  0  0  0
  -25.9135   -1.5435  -13.6392 C   0  0  0  0  0  0  0  0  0  0  0  0
 15 16  1  0  0  0
 16 17  1  0  0  0
 16 21  2  0  0  0
 17 18  2  0  0  0
 18 19  1  0  0  0
 19 20  2  0  0  0
 20 13  1  0  0  0
 20 21  1  0  0  0
 13  7  1  0  0  0
 13 14  1  0  0  0
  7  8  1  0  0  0
  7 12  2  0  0  0
  8  9  2  0  0  0
  9 10  1  0  0  0
 10 11  2  0  0  0
 11  1  1  0  0  0
 11 12  1  0  0  0
  1  2  1  0  0  0
  1  6  2  0  0  0
  2  3  2  0  0  0
  3  4  1  0  0  0
  4  5  2  0  0  0
  5 22  1  0  0  0
  5  6  1  0  0  0
 22 24  1  0  0  0
 22 23  1  0  0  0
 24 25  1  0  0  0
 25 26  1  0  0  0
 26 27  1  0  0  0
 27 28  1  0  0  0
 28 29  1  0  0  0
 28 33  2  0  0  0
 29 30  2  0  0  0
 30 31  1  0  0  0
 31 32  2  0  0  0
 32 33  1  0  0  0
M  END
> <minimizedAffinity>
-9.01204

$$$$
