CHEMBL212181


 37 41  0  0  0  0  0  0  0  0999 V2000
  -29.0058   -4.3653   -4.7892 C   0  0  0  0  0  0  0  0  0  0  0  0
  -28.7039   -3.7341   -6.1255 C   0  0  0  0  0  0  0  0  0  0  0  0
  -28.2417   -2.3958   -6.0976 C   0  0  0  0  0  0  0  0  0  0  0  0
  -27.8906   -1.7126   -7.2631 C   0  0  0  0  0  0  0  0  0  0  0  0
  -28.0211   -2.3543   -8.4869 C   0  0  0  0  0  0  0  0  0  0  0  0
  -28.5222   -3.6690   -8.5262 C   0  0  0  0  0  0  0  0  0  0  0  0
  -28.8670   -4.4025   -7.3666 C   0  0  0  0  0  0  0  0  0  0  0  0
  -29.3518   -5.8059   -7.5363 C   0  0  0  0  0  0  0  0  0  0  0  0
  -28.4839   -6.8261   -7.9717 C   0  0  0  0  0  0  0  0  0  0  0  0
  -28.9244   -8.1444   -8.1709 C   0  0  0  0  0  0  0  0  0  0  0  0
  -30.2296   -8.5210   -7.9128 C   0  0  0  0  0  0  0  0  0  0  0  0
  -30.6110   -9.7905   -8.0966 N   0  0  0  0  0  0  0  0  0  0  0  0
  -31.8919  -10.1094   -7.8481 C   0  0  0  0  0  0  0  0  0  0  0  0
  -32.8049   -9.2407   -7.3913 N   0  0  0  0  0  0  0  0  0  0  0  0
  -32.3914   -7.9720   -7.2120 C   0  0  0  0  0  0  0  0  0  0  0  0
  -31.1049   -7.5322   -7.4741 C   0  0  0  0  0  0  0  0  0  0  0  0
  -30.6826   -6.1902   -7.3237 C   0  0  0  0  0  0  0  0  0  0  0  0
  -32.3530  -11.4019   -8.0984 N   0  0  0  0  0  0  0  0  0  0  0  0
  -33.1624  -11.3335   -8.7022 H   0  0  0  0  0  0  0  0  0  0  0  0
  -32.2571  -12.4371   -7.0813 C   0  0  0  0  0  0  0  0  0  0  0  0
  -33.2470  -12.4655   -5.9508 C   0  0  0  0  0  0  0  0  0  0  0  0
  -31.8099  -12.1263   -5.6811 C   0  0  0  0  0  0  0  0  0  0  0  0
  -27.6987   -1.7034   -9.7846 C   0  0  0  0  0  0  0  0  0  0  0  0
  -28.2334   -0.6220  -10.0061 O   0  0  0  0  0  0  0  0  0  0  0  0
  -26.8842   -2.4189  -10.6547 N   0  0  0  0  0  0  0  0  0  0  0  0
  -26.6834   -3.3742  -10.4012 H   0  0  0  0  0  0  0  0  0  0  0  0
  -26.4993   -1.9987  -11.9585 C   0  0  0  0  0  0  0  0  0  0  0  0
  -27.3807   -2.0972  -13.0430 C   0  0  0  0  0  0  0  0  0  0  0  0
  -26.9973   -1.7343  -14.3306 C   0  0  0  0  0  0  0  0  0  0  0  0
  -25.7141   -1.2584  -14.5563 C   0  0  0  0  0  0  0  0  0  0  0  0
  -24.7982   -1.1216  -13.4970 C   0  0  0  0  0  0  0  0  0  0  0  0
  -25.1978   -1.4763  -12.1773 C   0  0  0  0  0  0  0  0  0  0  0  0
  -24.2379   -1.3190  -11.0183 C   0  0  0  0  0  0  0  0  0  0  0  0
  -23.4103   -0.6059  -13.8255 C   0  0  0  0  0  0  0  0  0  0  0  0
  -22.4207   -1.5219  -13.6245 F   0  0  0  0  0  0  0  0  0  0  0  0
  -23.2875   -0.2162  -15.1255 F   0  0  0  0  0  0  0  0  0  0  0  0
  -23.0643    0.4742  -13.0712 F   0  0  0  0  0  0  0  0  0  0  0  0
  1  2  1  0  0  0
  2  3  1  0  0  0
  2  7  2  0  0  0
  3  4  2  0  0  0
  4  5  1  0  0  0
  5 23  1  0  0  0
  5  6  2  0  0  0
 23 24  2  0  0  0
 23 25  1  0  0  0
 25 27  1  0  0  0
 25 26  1  0  0  0
 27 28  1  0  0  0
 27 32  2  0  0  0
 28 29  2  0  0  0
 29 30  1  0  0  0
 30 31  2  0  0  0
 31 34  1  0  0  0
 31 32  1  0  0  0
 34 35  1  0  0  0
 34 36  1  0  0  0
 34 37  1  0  0  0
 32 33  1  0  0  0
  6  7  1  0  0  0
  7  8  1  0  0  0
  8  9  1  0  0  0
  8 17  2  0  0  0
  9 10  2  0  0  0
 10 11  1  0  0  0
 11 12  1  0  0  0
 11 16  2  0  0  0
 12 13  2  0  0  0
 13 18  1  0  0  0
 13 14  1  0  0  0
 18 20  1  0  0  0
 18 19  1  0  0  0
 20 21  1  0  0  0
 20 22  1  0  0  0
 21 22  1  0  0  0
 14 15  2  0  0  0
 15 16  1  0  0  0
 16 17  1  0  0  0
M  END
> <minimizedAffinity>
-11.14746

$$$$
