CHEMBL3979341


 38 41  0  0  0  0  0  0  0  0999 V2000
  -24.6414   -0.9411  -13.4257 C   0  0  0  0  0  0  0  0  0  0  0  0
  -24.0545   -1.0958  -12.1601 C   0  0  0  0  0  0  0  0  0  0  0  0
  -24.7471   -1.6566  -11.0827 C   0  0  0  0  0  0  0  0  0  0  0  0
  -26.0507   -2.1194  -11.2365 C   0  0  0  0  0  0  0  0  0  0  0  0
  -26.6375   -1.9885  -12.4977 C   0  0  0  0  0  0  0  0  0  0  0  0
  -27.8960   -2.4206  -12.6879 F   0  0  0  0  0  0  0  0  0  0  0  0
  -25.9495   -1.4234  -13.5773 C   0  0  0  0  0  0  0  0  0  0  0  0
  -26.7928   -2.7240  -10.1913 N   0  0  0  0  0  0  0  0  0  0  0  0
  -27.2866   -2.0644   -9.0812 C   0  0  0  0  0  0  0  0  0  0  0  0
  -27.1765   -0.8597   -8.8784 O   0  0  0  0  0  0  0  0  0  0  0  0
  -27.8835   -2.9252   -8.1711 N   0  0  0  0  0  0  0  0  0  0  0  0
  -26.9040   -3.7280  -10.2468 H   0  0  0  0  0  0  0  0  0  0  0  0
  -27.4858   -3.8521   -8.1395 H   0  0  0  0  0  0  0  0  0  0  0  0
  -28.3911   -2.4186   -6.9485 C   0  0  0  0  0  0  0  0  0  0  0  0
  -28.7885   -3.3205   -5.9641 C   0  0  0  0  0  0  0  0  0  0  0  0
  -29.1807   -2.8514   -4.7093 C   0  0  0  0  0  0  0  0  0  0  0  0
  -29.2226   -1.4794   -4.4506 C   0  0  0  0  0  0  0  0  0  0  0  0
  -28.8708   -0.5571   -5.4445 C   0  0  0  0  0  0  0  0  0  0  0  0
  -28.4552   -1.0413   -6.6960 C   0  0  0  0  0  0  0  0  0  0  0  0
  -28.9160    0.9288   -5.1895 C   0  0  0  0  0  0  0  0  0  0  0  0
  -30.1638    1.3866   -4.8839 F   0  0  0  0  0  0  0  0  0  0  0  0
  -28.1174    1.3173   -4.1580 F   0  0  0  0  0  0  0  0  0  0  0  0
  -28.5130    1.6553   -6.2696 F   0  0  0  0  0  0  0  0  0  0  0  0
  -24.3275   -0.6119  -15.8347 C   0  0  0  0  0  0  0  0  0  0  0  0
  -23.9229   -0.2897  -14.4606 N   0  0  0  0  0  0  0  0  0  0  0  0
  -22.9119    0.6919  -14.2848 C   0  0  0  0  0  0  0  0  0  0  0  0
  -23.1840    2.0047  -13.9007 C   0  0  0  0  0  0  0  0  0  0  0  0
  -22.1384    2.8911  -13.7379 C   0  0  0  0  0  0  0  0  0  0  0  0
  -20.8464    2.5749  -13.9550 N   0  0  0  0  0  0  0  0  0  0  0  0
  -20.5638    1.3282  -14.3473 C   0  0  0  0  0  0  0  0  0  0  0  0
  -21.5578    0.3715  -14.5099 C   0  0  0  0  0  0  0  0  0  0  0  0
  -19.2453    0.9548  -14.6403 N   0  0  0  0  0  0  0  0  0  0  0  0
  -18.3554    1.7125  -15.3717 C   0  0  0  0  0  0  0  0  0  0  0  0
  -18.5261    2.8275  -15.8399 O   0  0  0  0  0  0  0  0  0  0  0  0
  -18.9422    0.0489  -14.3197 H   0  0  0  0  0  0  0  0  0  0  0  0
  -17.0483    1.0161  -15.5908 C   0  0  0  0  0  0  0  0  0  0  0  0
  -15.8588    1.3310  -14.7103 C   0  0  0  0  0  0  0  0  0  0  0  0
  -15.8801    1.8091  -16.1326 C   0  0  0  0  0  0  0  0  0  0  0  0
 24 25  1  0  0  0
 25 26  1  0  0  0
 25  1  1  0  0  0
 26 27  1  0  0  0
 26 31  2  0  0  0
 27 28  2  0  0  0
 28 29  1  0  0  0
 29 30  2  0  0  0
 30 32  1  0  0  0
 30 31  1  0  0  0
 32 33  1  0  0  0
 32 35  1  0  0  0
 33 34  2  0  0  0
 33 36  1  0  0  0
 36 37  1  0  0  0
 36 38  1  0  0  0
 37 38  1  0  0  0
  1  2  1  0  0  0
  1  7  2  0  0  0
  2  3  2  0  0  0
  3  4  1  0  0  0
  4  8  1  0  0  0
  4  5  2  0  0  0
  8  9  1  0  0  0
  8 12  1  0  0  0
  9 10  2  0  0  0
  9 11  1  0  0  0
 11 14  1  0  0  0
 11 13  1  0  0  0
 14 15  1  0  0  0
 14 19  2  0  0  0
 15 16  2  0  0  0
 16 17  1  0  0  0
 17 18  2  0  0  0
 18 20  1  0  0  0
 18 19  1  0  0  0
 20 21  1  0  0  0
 20 22  1  0  0  0
 20 23  1  0  0  0
  5  6  1  0  0  0
  5  7  1  0  0  0
M  END
> <minimizedAffinity>
-10.35533

$$$$
