CHEMBL440202


 35 38  0  0  0  0  0  0  0  0999 V2000
  -29.4693   -5.6014   -4.6908 C   0  0  0  0  0  0  0  0  0  0  0  0
  -30.3989   -5.1047   -5.5965 C   0  0  0  0  0  0  0  0  0  0  0  0
  -30.0545   -4.0226   -6.4111 C   0  0  0  0  0  0  0  0  0  0  0  0
  -28.8183   -3.3755   -6.2879 C   0  0  0  0  0  0  0  0  0  0  0  0
  -27.9761   -3.7628   -5.2406 C   0  0  0  0  0  0  0  0  0  0  0  0
  -28.2990   -4.8773   -4.4500 C   0  0  0  0  0  0  0  0  0  0  0  0
  -28.3706   -2.3675   -7.1910 N   0  0  0  0  0  0  0  0  0  0  0  0
  -27.7207   -2.6211   -8.3860 C   0  0  0  0  0  0  0  0  0  0  0  0
  -27.4258   -3.7400   -8.7883 O   0  0  0  0  0  0  0  0  0  0  0  0
  -27.4200   -1.4695   -9.1035 N   0  0  0  0  0  0  0  0  0  0  0  0
  -28.4286   -1.4159   -6.8748 H   0  0  0  0  0  0  0  0  0  0  0  0
  -27.2673   -0.6214   -8.5721 H   0  0  0  0  0  0  0  0  0  0  0  0
  -26.8983   -1.5086  -10.4285 C   0  0  0  0  0  0  0  0  0  0  0  0
  -27.7248   -1.6774  -11.5503 C   0  0  0  0  0  0  0  0  0  0  0  0
  -27.1853   -1.8056  -12.8281 C   0  0  0  0  0  0  0  0  0  0  0  0
  -28.2297   -2.0850  -14.1680 Cl  0  0  0  0  0  0  0  0  0  0  0  0
  -25.8150   -1.7255  -13.0241 C   0  0  0  0  0  0  0  0  0  0  0  0
  -24.9917   -1.5000  -11.9227 C   0  0  0  0  0  0  0  0  0  0  0  0
  -23.2901   -1.3874  -12.1600 Cl  0  0  0  0  0  0  0  0  0  0  0  0
  -25.5210   -1.3808  -10.6296 C   0  0  0  0  0  0  0  0  0  0  0  0
  -29.5980   -6.8004   -4.0292 O   0  0  0  0  0  0  0  0  0  0  0  0
  -30.1602  -10.5961   -7.6022 C   0  0  0  0  0  0  0  0  0  0  0  0
  -28.9806  -10.7768   -6.8558 C   0  0  0  0  0  0  0  0  0  0  0  0
  -28.5827   -9.8993   -5.8565 C   0  0  0  0  0  0  0  0  0  0  0  0
  -27.5046  -10.2381   -5.1215 N   0  0  0  0  0  0  0  0  0  0  0  0
  -27.1607   -9.4414   -4.0925 C   0  0  0  0  0  0  0  0  0  0  0  0
  -27.8606   -8.3088   -3.7339 C   0  0  0  0  0  0  0  0  0  0  0  0
  -28.9718   -7.9483   -4.4957 C   0  0  0  0  0  0  0  0  0  0  0  0
  -29.3329   -8.7321   -5.6351 C   0  0  0  0  0  0  0  0  0  0  0  0
  -30.3787   -8.4545   -6.5387 C   0  0  0  0  0  0  0  0  0  0  0  0
  -30.8528   -9.3958   -7.4586 C   0  0  0  0  0  0  0  0  0  0  0  0
  -31.6051  -12.4442   -7.9794 C   0  0  0  0  0  0  0  0  0  0  0  0
  -30.6164  -11.5400   -8.4795 O   0  0  0  0  0  0  0  0  0  0  0  0
  -31.9943   -8.9571   -8.0659 O   0  0  0  0  0  0  0  0  0  0  0  0
  -33.1019   -8.5274   -7.2953 C   0  0  0  0  0  0  0  0  0  0  0  0
 32 33  1  0  0  0
 33 22  1  0  0  0
 22 23  1  0  0  0
 22 31  2  0  0  0
 23 24  2  0  0  0
 24 25  1  0  0  0
 24 29  1  0  0  0
 25 26  2  0  0  0
 26 27  1  0  0  0
 27 28  2  0  0  0
 28 21  1  0  0  0
 28 29  1  0  0  0
 21  1  1  0  0  0
  1  2  1  0  0  0
  1  6  2  0  0  0
  2  3  2  0  0  0
  3  4  1  0  0  0
  4  7  1  0  0  0
  4  5  2  0  0  0
  7  8  1  0  0  0
  7 11  1  0  0  0
  8  9  2  0  0  0
  8 10  1  0  0  0
 10 13  1  0  0  0
 10 12  1  0  0  0
 13 14  1  0  0  0
 13 20  2  0  0  0
 14 15  2  0  0  0
 15 16  1  0  0  0
 15 17  1  0  0  0
 17 18  2  0  0  0
 18 19  1  0  0  0
 18 20  1  0  0  0
  5  6  1  0  0  0
 29 30  2  0  0  0
 30 31  1  0  0  0
 31 34  1  0  0  0
 34 35  1  0  0  0
M  END
> <minimizedAffinity>
-8.67621

$$$$
