CHEMBL220391


 33 36  0  0  0  0  0  0  0  0999 V2000
  -24.7773   -0.6484  -13.6100 C   0  0  0  0  0  0  0  0  0  0  0  0
  -24.6545   -0.6617  -14.9553 N   0  0  0  0  0  0  0  0  0  0  0  0
  -25.6840   -1.1799  -15.6276 C   0  0  0  0  0  0  0  0  0  0  0  0
  -26.7908   -1.6990  -15.0850 N   0  0  0  0  0  0  0  0  0  0  0  0
  -26.8684   -1.7032  -13.7416 C   0  0  0  0  0  0  0  0  0  0  0  0
  -28.0750   -2.1879  -13.2522 N   0  0  0  0  0  0  0  0  0  0  0  0
  -25.8642   -1.1821  -12.9363 C   0  0  0  0  0  0  0  0  0  0  0  0
  -28.6059   -2.6303  -13.9939 H   0  0  0  0  0  0  0  0  0  0  0  0
  -27.9781   -2.7367  -12.4021 H   0  0  0  0  0  0  0  0  0  0  0  0
  -25.9148   -1.1856  -11.4620 C   0  0  0  0  0  0  0  0  0  0  0  0
  -26.4638   -2.1510  -10.7925 N   0  0  0  0  0  0  0  0  0  0  0  0
  -26.4141   -1.8694   -9.4176 O   0  0  0  0  0  0  0  0  0  0  0  0
  -27.7568   -1.8750   -8.9054 C   0  0  0  0  0  0  0  0  0  0  0  0
  -27.8369   -1.1524   -7.5493 C   0  0  0  0  0  0  0  0  0  0  0  0
  -27.4685   -1.9768   -6.3752 N   0  0  0  0  0  0  0  0  0  0  0  0
  -28.4636   -3.0575   -6.1603 C   0  0  0  0  0  0  0  0  0  0  0  0
  -29.8195   -2.5636   -5.6178 C   0  0  0  0  0  0  0  0  0  0  0  0
  -29.6652   -1.7979   -4.4160 O   0  0  0  0  0  0  0  0  0  0  0  0
  -28.7619   -0.7021   -4.6152 C   0  0  0  0  0  0  0  0  0  0  0  0
  -27.3958   -1.2000   -5.1149 C   0  0  0  0  0  0  0  0  0  0  0  0
  -23.7509   -0.0829  -12.8600 O   0  0  0  0  0  0  0  0  0  0  0  0
  -17.7142    2.8061  -15.9825 C   0  0  0  0  0  0  0  0  0  0  0  0
  -19.0346    2.3681  -15.4684 C   0  0  0  0  0  0  0  0  0  0  0  0
  -19.5397    1.1076  -15.2187 C   0  0  0  0  0  0  0  0  0  0  0  0
  -20.8147    1.2571  -14.6003 C   0  0  0  0  0  0  0  0  0  0  0  0
  -21.7619    0.3668  -14.0621 C   0  0  0  0  0  0  0  0  0  0  0  0
  -21.5359   -0.9566  -14.0953 F   0  0  0  0  0  0  0  0  0  0  0  0
  -22.9233    0.8576  -13.4510 C   0  0  0  0  0  0  0  0  0  0  0  0
  -23.1313    2.2371  -13.3677 C   0  0  0  0  0  0  0  0  0  0  0  0
  -22.2280    3.1437  -13.9359 C   0  0  0  0  0  0  0  0  0  0  0  0
  -21.0730    2.6261  -14.5319 C   0  0  0  0  0  0  0  0  0  0  0  0
  -20.0077    3.2720  -15.1181 N   0  0  0  0  0  0  0  0  0  0  0  0
  -19.9294    4.2759  -15.2115 H   0  0  0  0  0  0  0  0  0  0  0  0
 22 23  1  0  0  0
 23 24  2  0  0  0
 23 32  1  0  0  0
 24 25  1  0  0  0
 25 26  1  0  0  0
 25 31  2  0  0  0
 26 27  1  0  0  0
 26 28  2  0  0  0
 28 21  1  0  0  0
 28 29  1  0  0  0
 21  1  1  0  0  0
  1  2  1  0  0  0
  1  7  2  0  0  0
  2  3  2  0  0  0
  3  4  1  0  0  0
  4  5  2  0  0  0
  5  6  1  0  0  0
  5  7  1  0  0  0
  6  8  1  0  0  0
  6  9  1  0  0  0
  7 10  1  0  0  0
 10 11  2  0  0  0
 11 12  1  0  0  0
 12 13  1  0  0  0
 13 14  1  0  0  0
 14 15  1  0  0  0
 15 16  1  0  0  0
 15 20  1  0  0  0
 16 17  1  0  0  0
 17 18  1  0  0  0
 18 19  1  0  0  0
 19 20  1  0  0  0
 29 30  2  0  0  0
 30 31  1  0  0  0
 31 32  1  0  0  0
 32 33  1  0  0  0
M  END
> <minimizedAffinity>
-9.43543

$$$$
