CHEMBL448993


 42 47  0  0  0  0  0  0  0  0999 V2000
  -14.5985   -0.6894  -13.8172 C   0  0  0  0  0  0  0  0  0  0  0  0
  -15.5674   -1.6081  -13.4190 C   0  0  0  0  0  0  0  0  0  0  0  0
  -15.4180   -2.9588  -13.7239 C   0  0  0  0  0  0  0  0  0  0  0  0
  -14.2698   -3.4247  -14.3637 C   0  0  0  0  0  0  0  0  0  0  0  0
  -13.2724   -2.5138  -14.7170 C   0  0  0  0  0  0  0  0  0  0  0  0
  -13.4438   -1.1562  -14.4437 C   0  0  0  0  0  0  0  0  0  0  0  0
  -12.4733   -0.2974  -14.7940 F   0  0  0  0  0  0  0  0  0  0  0  0
  -14.0623   -4.7834  -14.6575 N   0  0  0  0  0  0  0  0  0  0  0  0
  -13.2796   -5.6790  -13.9572 C   0  0  0  0  0  0  0  0  0  0  0  0
  -12.6241   -5.4318  -12.9514 O   0  0  0  0  0  0  0  0  0  0  0  0
  -13.2906   -6.9628  -14.4785 N   0  0  0  0  0  0  0  0  0  0  0  0
  -12.6222   -8.0366  -13.7892 C   0  0  0  0  0  0  0  0  0  0  0  0
  -13.0458   -9.2594  -14.5712 C   0  0  0  0  0  0  0  0  0  0  0  0
  -13.2607   -8.7320  -15.8982 N   0  0  0  0  0  0  0  0  0  0  0  0
  -13.5300   -7.3502  -15.8158 C   0  0  0  0  0  0  0  0  0  0  0  0
  -13.9512   -6.6020  -16.6891 O   0  0  0  0  0  0  0  0  0  0  0  0
  -14.5007   -5.1522  -15.4990 H   0  0  0  0  0  0  0  0  0  0  0  0
  -13.2592   -9.5225  -17.0651 C   0  0  0  0  0  0  0  0  0  0  0  0
  -12.8794  -10.8706  -17.0207 C   0  0  0  0  0  0  0  0  0  0  0  0
  -12.9434  -11.6693  -18.1634 C   0  0  0  0  0  0  0  0  0  0  0  0
  -13.3680  -11.1254  -19.3717 C   0  0  0  0  0  0  0  0  0  0  0  0
  -13.7340   -9.7845  -19.4370 C   0  0  0  0  0  0  0  0  0  0  0  0
  -13.6885   -8.9904  -18.2877 C   0  0  0  0  0  0  0  0  0  0  0  0
  -14.6864    0.6626  -13.5898 O   0  0  0  0  0  0  0  0  0  0  0  0
  -18.8878    2.0762  -14.9209 C   0  0  0  0  0  0  0  0  0  0  0  0
  -18.2259    2.7868  -15.9030 C   0  0  0  0  0  0  0  0  0  0  0  0
  -16.8141    2.6119  -15.8594 C   0  0  0  0  0  0  0  0  0  0  0  0
  -15.9282    3.2266  -16.6879 N   0  0  0  0  0  0  0  0  0  0  0  0
  -14.6297    2.9738  -16.4446 C   0  0  0  0  0  0  0  0  0  0  0  0
  -14.1518    2.1570  -15.4391 C   0  0  0  0  0  0  0  0  0  0  0  0
  -15.0662    1.4874  -14.6261 C   0  0  0  0  0  0  0  0  0  0  0  0
  -16.4267    1.7447  -14.8413 C   0  0  0  0  0  0  0  0  0  0  0  0
  -17.7923    1.1220  -14.0122 S   0  0  0  0  0  0  0  0  0  0  0  0
  -22.3226    0.8842  -13.8982 C   0  0  0  0  0  0  0  0  0  0  0  0
  -23.0015    2.1002  -13.7686 C   0  0  0  0  0  0  0  0  0  0  0  0
  -22.3526    3.3007  -14.0604 C   0  0  0  0  0  0  0  0  0  0  0  0
  -21.0162    3.2930  -14.4656 C   0  0  0  0  0  0  0  0  0  0  0  0
  -20.3190    2.0850  -14.5975 C   0  0  0  0  0  0  0  0  0  0  0  0
  -20.9931    0.8830  -14.3275 C   0  0  0  0  0  0  0  0  0  0  0  0
  -22.7514   -1.0037  -12.1885 C   0  0  0  0  0  0  0  0  0  0  0  0
  -23.0213   -0.3853  -13.5390 C   0  0  0  0  0  0  0  0  0  0  0  0
  -23.8058   -0.8992  -14.3318 O   0  0  0  0  0  0  0  0  0  0  0  0
 40 41  1  0  0  0
 41 42  2  0  0  0
 41 34  1  0  0  0
 34 35  1  0  0  0
 34 39  2  0  0  0
 35 36  2  0  0  0
 36 37  1  0  0  0
 37 38  2  0  0  0
 38 25  1  0  0  0
 38 39  1  0  0  0
 25 26  2  0  0  0
 25 33  1  0  0  0
 26 27  1  0  0  0
 27 28  1  0  0  0
 27 32  2  0  0  0
 28 29  2  0  0  0
 29 30  1  0  0  0
 30 31  2  0  0  0
 31 24  1  0  0  0
 31 32  1  0  0  0
 24  1  1  0  0  0
  1  2  1  0  0  0
  1  6  2  0  0  0
  2  3  2  0  0  0
  3  4  1  0  0  0
  4  8  1  0  0  0
  4  5  2  0  0  0
  8  9  1  0  0  0
  8 17  1  0  0  0
  9 10  2  0  0  0
  9 11  1  0  0  0
 11 12  1  0  0  0
 11 15  1  0  0  0
 12 13  1  0  0  0
 13 14  1  0  0  0
 14 18  1  0  0  0
 14 15  1  0  0  0
 18 19  1  0  0  0
 18 23  2  0  0  0
 19 20  2  0  0  0
 20 21  1  0  0  0
 21 22  2  0  0  0
 22 23  1  0  0  0
 15 16  2  0  0  0
  5  6  1  0  0  0
  6  7  1  0  0  0
 32 33  1  0  0  0
M  END
> <minimizedAffinity>
-10.45650

$$$$
