CHEMBL4164213


 34 36  0  0  0  0  0  0  0  0999 V2000
  -14.8909    4.0983  -17.4749 C   0  0  0  0  0  0  0  0  0  0  0  0
  -15.9600    4.1743  -16.5797 C   0  0  0  0  0  0  0  0  0  0  0  0
  -16.4260    3.0490  -15.8935 C   0  0  0  0  0  0  0  0  0  0  0  0
  -15.8587    1.7952  -16.0870 C   0  0  0  0  0  0  0  0  0  0  0  0
  -14.8205    1.6789  -17.0118 C   0  0  0  0  0  0  0  0  0  0  0  0
  -14.3452    2.8175  -17.6985 C   0  0  0  0  0  0  0  0  0  0  0  0
  -14.7252    6.9174  -19.7953 C   0  0  0  0  0  0  0  0  0  0  0  0
  -13.5725    7.6036  -19.4426 C   0  0  0  0  0  0  0  0  0  0  0  0
  -12.8164    7.1300  -18.3807 C   0  0  0  0  0  0  0  0  0  0  0  0
  -13.2128    5.9679  -17.7263 C   0  0  0  0  0  0  0  0  0  0  0  0
  -14.3888    5.3332  -18.1233 C   0  0  0  0  0  0  0  0  0  0  0  0
  -15.1704    5.8404  -19.1186 N   0  0  0  0  0  0  0  0  0  0  0  0
  -16.2780    8.4681  -20.8389 C   0  0  0  0  0  0  0  0  0  0  0  0
  -16.3462    9.2539  -19.9000 O   0  0  0  0  0  0  0  0  0  0  0  0
  -15.5130    7.3255  -20.8774 N   0  0  0  0  0  0  0  0  0  0  0  0
  -15.1994    6.9760  -21.7713 H   0  0  0  0  0  0  0  0  0  0  0  0
  -18.2139    9.3104  -22.0810 C   0  0  0  0  0  0  0  0  0  0  0  0
  -17.0093    8.7223  -22.1090 C   0  0  0  0  0  0  0  0  0  0  0  0
  -16.2658    0.6403  -15.3612 N   0  0  0  0  0  0  0  0  0  0  0  0
  -15.4755   -0.0449  -14.4564 C   0  0  0  0  0  0  0  0  0  0  0  0
  -14.3726    0.3192  -14.0754 O   0  0  0  0  0  0  0  0  0  0  0  0
  -16.0530   -1.2466  -14.0474 N   0  0  0  0  0  0  0  0  0  0  0  0
  -17.2314    0.3590  -15.4350 H   0  0  0  0  0  0  0  0  0  0  0  0
  -16.5668   -1.7284  -14.7694 H   0  0  0  0  0  0  0  0  0  0  0  0
  -15.3344   -2.0596  -13.1340 C   0  0  0  0  0  0  0  0  0  0  0  0
  -14.2236   -2.7874  -13.5571 C   0  0  0  0  0  0  0  0  0  0  0  0
  -13.6120   -3.7204  -12.7180 C   0  0  0  0  0  0  0  0  0  0  0  0
  -14.0947   -3.9518  -11.4198 C   0  0  0  0  0  0  0  0  0  0  0  0
  -15.1796   -3.1598  -10.9883 C   0  0  0  0  0  0  0  0  0  0  0  0
  -15.7794   -2.2056  -11.8251 C   0  0  0  0  0  0  0  0  0  0  0  0
  -13.4821   -5.0297  -10.5065 C   0  0  0  0  0  0  0  0  0  0  0  0
  -13.8416   -4.8500   -9.0124 C   0  0  0  0  0  0  0  0  0  0  0  0
  -13.9863   -6.4211  -10.9377 C   0  0  0  0  0  0  0  0  0  0  0  0
  -11.9399   -5.0035  -10.6008 C   0  0  0  0  0  0  0  0  0  0  0  0
 17 18  2  0  0  0
 18 13  1  0  0  0
 13 14  2  0  0  0
 13 15  1  0  0  0
 15  7  1  0  0  0
 15 16  1  0  0  0
  7  8  1  0  0  0
  7 12  2  0  0  0
  8  9  2  0  0  0
  9 10  1  0  0  0
 10 11  2  0  0  0
 11  1  1  0  0  0
 11 12  1  0  0  0
  1  2  1  0  0  0
  1  6  2  0  0  0
  2  3  2  0  0  0
  3  4  1  0  0  0
  4 19  1  0  0  0
  4  5  2  0  0  0
 19 20  1  0  0  0
 19 23  1  0  0  0
 20 21  2  0  0  0
 20 22  1  0  0  0
 22 25  1  0  0  0
 22 24  1  0  0  0
 25 26  1  0  0  0
 25 30  2  0  0  0
 26 27  2  0  0  0
 27 28  1  0  0  0
 28 31  1  0  0  0
 28 29  2  0  0  0
 31 32  1  0  0  0
 31 33  1  0  0  0
 31 34  1  0  0  0
 29 30  1  0  0  0
  5  6  1  0  0  0
M  END
> <minimizedAffinity>
-6.99824

$$$$
