CHEMBL4459013


 34 38  0  0  0  0  0  0  0  0999 V2000
  -15.1769   -1.4503  -13.9484 C   0  0  0  0  0  0  0  0  0  0  0  0
  -13.8131   -1.7219  -14.0775 C   0  0  0  0  0  0  0  0  0  0  0  0
  -13.2288   -2.8022  -13.3954 C   0  0  0  0  0  0  0  0  0  0  0  0
  -14.0127   -3.6475  -12.5981 C   0  0  0  0  0  0  0  0  0  0  0  0
  -15.3573   -3.3147  -12.3995 C   0  0  0  0  0  0  0  0  0  0  0  0
  -15.9316   -2.2138  -13.0576 C   0  0  0  0  0  0  0  0  0  0  0  0
  -13.4456   -4.8294  -12.0220 N   0  0  0  0  0  0  0  0  0  0  0  0
  -12.4585   -4.8446  -11.0588 C   0  0  0  0  0  0  0  0  0  0  0  0
  -12.1577   -6.1280  -10.7009 C   0  0  0  0  0  0  0  0  0  0  0  0
  -12.9295   -6.9832  -11.4738 C   0  0  0  0  0  0  0  0  0  0  0  0
  -12.9346   -8.3264  -11.4582 N   0  0  0  0  0  0  0  0  0  0  0  0
  -13.7666   -8.8585  -12.3504 C   0  0  0  0  0  0  0  0  0  0  0  0
  -14.5559   -8.2082  -13.2161 N   0  0  0  0  0  0  0  0  0  0  0  0
  -14.5450   -6.8594  -13.2267 C   0  0  0  0  0  0  0  0  0  0  0  0
  -15.3367   -6.2904  -14.2160 N   0  0  0  0  0  0  0  0  0  0  0  0
  -13.7353   -6.1837  -12.3136 C   0  0  0  0  0  0  0  0  0  0  0  0
  -11.1724   -6.2004   -9.6092 C   0  0  0  0  0  0  0  0  0  0  0  0
  -11.2118   -4.7364   -9.0666 C   0  0  0  0  0  0  0  0  0  0  0  0
  -11.7574   -3.8352  -10.2297 C   0  0  0  0  0  0  0  0  0  0  0  0
  -15.6293   -7.0193  -14.8568 H   0  0  0  0  0  0  0  0  0  0  0  0
  -14.9160   -5.4822  -14.6615 H   0  0  0  0  0  0  0  0  0  0  0  0
  -16.3447    0.7124  -14.1042 C   0  0  0  0  0  0  0  0  0  0  0  0
  -16.2723    0.9776  -12.9059 O   0  0  0  0  0  0  0  0  0  0  0  0
  -15.8203   -0.4348  -14.6955 N   0  0  0  0  0  0  0  0  0  0  0  0
  -15.5469   -0.3399  -15.6673 H   0  0  0  0  0  0  0  0  0  0  0  0
  -17.0439    1.6554  -15.0760 C   0  0  0  0  0  0  0  0  0  0  0  0
  -22.7690    2.1013  -13.9733 C   0  0  0  0  0  0  0  0  0  0  0  0
  -21.3027    2.0121  -14.3027 C   0  0  0  0  0  0  0  0  0  0  0  0
  -20.4530    3.1082  -14.1016 C   0  0  0  0  0  0  0  0  0  0  0  0
  -19.0792    3.0045  -14.3836 C   0  0  0  0  0  0  0  0  0  0  0  0
  -18.5340    1.8084  -14.8641 C   0  0  0  0  0  0  0  0  0  0  0  0
  -19.3958    0.7296  -15.0745 C   0  0  0  0  0  0  0  0  0  0  0  0
  -18.8994   -0.4360  -15.5147 F   0  0  0  0  0  0  0  0  0  0  0  0
  -20.7630    0.8236  -14.7992 C   0  0  0  0  0  0  0  0  0  0  0  0
 27 28  1  0  0  0
 28 29  1  0  0  0
 28 34  2  0  0  0
 29 30  2  0  0  0
 30 31  1  0  0  0
 31 26  1  0  0  0
 31 32  2  0  0  0
 26 22  1  0  0  0
 22 23  2  0  0  0
 22 24  1  0  0  0
 24  1  1  0  0  0
 24 25  1  0  0  0
  1  2  1  0  0  0
  1  6  2  0  0  0
  2  3  2  0  0  0
  3  4  1  0  0  0
  4  7  1  0  0  0
  4  5  2  0  0  0
  7  8  1  0  0  0
  7 16  1  0  0  0
  8  9  2  0  0  0
  8 19  1  0  0  0
  9 10  1  0  0  0
  9 17  1  0  0  0
 10 11  1  0  0  0
 10 16  2  0  0  0
 11 12  2  0  0  0
 12 13  1  0  0  0
 13 14  2  0  0  0
 14 15  1  0  0  0
 14 16  1  0  0  0
 15 20  1  0  0  0
 15 21  1  0  0  0
 17 18  1  0  0  0
 18 19  1  0  0  0
  5  6  1  0  0  0
 32 33  1  0  0  0
 32 34  1  0  0  0
M  END
> <minimizedAffinity>
-9.83645

$$$$
