CHEMBL443268


 41 45  0  0  0  0  0  0  0  0999 V2000
  -28.5242   -5.3411   -7.9983 C   0  0  0  0  0  0  0  0  0  0  0  0
  -28.4987   -4.4596   -6.9808 C   0  0  0  0  0  0  0  0  0  0  0  0
  -28.6950   -4.7082   -5.5025 C   0  0  0  0  0  0  0  0  0  0  0  0
  -29.0502   -5.7445   -4.9667 O   0  0  0  0  0  0  0  0  0  0  0  0
  -28.4136   -3.5031   -4.8852 N   0  0  0  0  0  0  0  0  0  0  0  0
  -28.5097   -3.2416   -3.4746 C   0  0  0  0  0  0  0  0  0  0  0  0
  -28.1633   -2.4959   -5.8154 C   0  0  0  0  0  0  0  0  0  0  0  0
  -27.9575   -1.2166   -5.4775 N   0  0  0  0  0  0  0  0  0  0  0  0
  -27.8183   -0.4029   -6.5231 C   0  0  0  0  0  0  0  0  0  0  0  0
  -27.8933   -0.7657   -7.8143 N   0  0  0  0  0  0  0  0  0  0  0  0
  -28.1136   -2.0727   -8.1060 C   0  0  0  0  0  0  0  0  0  0  0  0
  -28.2163   -3.0124   -7.1013 C   0  0  0  0  0  0  0  0  0  0  0  0
  -31.2027   -7.0610   -7.2607 C   0  0  0  0  0  0  0  0  0  0  0  0
  -29.8545   -7.5149   -7.6972 C   0  0  0  0  0  0  0  0  0  0  0  0
  -29.5231   -8.8735   -7.9169 C   0  0  0  0  0  0  0  0  0  0  0  0
  -28.1997   -8.9629   -8.2958 C   0  0  0  0  0  0  0  0  0  0  0  0
  -27.7271   -7.6692   -8.3245 N   0  0  0  0  0  0  0  0  0  0  0  0
  -28.7194   -6.7609   -7.9916 C   0  0  0  0  0  0  0  0  0  0  0  0
  -26.7859   -7.4154   -8.6045 H   0  0  0  0  0  0  0  0  0  0  0  0
  -27.5214  -10.1998   -8.6205 C   0  0  0  0  0  0  0  0  0  0  0  0
  -28.0598  -11.0585   -9.3166 O   0  0  0  0  0  0  0  0  0  0  0  0
  -26.2767  -10.4098   -8.0593 N   0  0  0  0  0  0  0  0  0  0  0  0
  -25.8025   -9.6570   -7.5807 H   0  0  0  0  0  0  0  0  0  0  0  0
  -25.5830  -11.6686   -8.3111 C   0  0  0  0  0  0  0  0  0  0  0  0
  -24.5013  -12.0075   -7.2630 C   0  0  0  0  0  0  0  0  0  0  0  0
  -23.4314  -10.9927   -7.1812 N   0  0  0  0  0  0  0  0  0  0  0  0
  -22.0675  -11.5437   -7.3664 C   0  0  0  0  0  0  0  0  0  0  0  0
  -21.5462  -12.3293   -6.1535 C   0  0  0  0  0  0  0  0  0  0  0  0
  -21.5154  -11.4922   -4.9923 O   0  0  0  0  0  0  0  0  0  0  0  0
  -22.8248  -10.9918   -4.6986 C   0  0  0  0  0  0  0  0  0  0  0  0
  -23.4527  -10.2537   -5.8976 C   0  0  0  0  0  0  0  0  0  0  0  0
  -28.2294   -2.4301   -9.4650 N   0  0  0  0  0  0  0  0  0  0  0  0
  -28.4283   -3.4239   -9.5361 H   0  0  0  0  0  0  0  0  0  0  0  0
  -27.3592   -1.9708  -10.4838 C   0  0  0  0  0  0  0  0  0  0  0  0
  -26.0360   -1.6218  -10.1790 C   0  0  0  0  0  0  0  0  0  0  0  0
  -25.1504   -1.2354  -11.1929 C   0  0  0  0  0  0  0  0  0  0  0  0
  -25.5766   -1.2238  -12.5176 C   0  0  0  0  0  0  0  0  0  0  0  0
  -24.7092   -0.8547  -13.4714 F   0  0  0  0  0  0  0  0  0  0  0  0
  -26.8738   -1.6010  -12.8433 C   0  0  0  0  0  0  0  0  0  0  0  0
  -27.4048   -1.6182  -14.4810 Cl  0  0  0  0  0  0  0  0  0  0  0  0
  -27.7558   -1.9824  -11.8328 C   0  0  0  0  0  0  0  0  0  0  0  0
 13 14  1  0  0  0
 14 15  1  0  0  0
 14 18  2  0  0  0
 15 16  2  0  0  0
 16 20  1  0  0  0
 16 17  1  0  0  0
 20 21  2  0  0  0
 20 22  1  0  0  0
 22 24  1  0  0  0
 22 23  1  0  0  0
 24 25  1  0  0  0
 25 26  1  0  0  0
 26 27  1  0  0  0
 26 31  1  0  0  0
 27 28  1  0  0  0
 28 29  1  0  0  0
 29 30  1  0  0  0
 30 31  1  0  0  0
 17 18  1  0  0  0
 17 19  1  0  0  0
 18  1  1  0  0  0
  1  2  2  0  0  0
  2  3  1  0  0  0
  2 12  1  0  0  0
  3  4  2  0  0  0
  3  5  1  0  0  0
  5  6  1  0  0  0
  5  7  1  0  0  0
  7  8  1  0  0  0
  7 12  2  0  0  0
  8  9  2  0  0  0
  9 10  1  0  0  0
 10 11  2  0  0  0
 11 32  1  0  0  0
 11 12  1  0  0  0
 32 34  1  0  0  0
 32 33  1  0  0  0
 34 35  1  0  0  0
 34 41  2  0  0  0
 35 36  2  0  0  0
 36 37  1  0  0  0
 37 38  1  0  0  0
 37 39  2  0  0  0
 39 40  1  0  0  0
 39 41  1  0  0  0
M  END
> <minimizedAffinity>
-9.97153

$$$$
