CHEMBL3741960


 32 36  0  0  0  0  0  0  0  0999 V2000
  -30.5957   -6.8245   -7.1628 C   0  0  0  0  0  0  0  0  0  0  0  0
  -29.7375   -7.2019   -5.9965 C   0  0  0  0  0  0  0  0  0  0  0  0
  -29.5737   -6.4971   -4.8008 C   0  0  0  0  0  0  0  0  0  0  0  0
  -28.5882   -7.1636   -4.0996 N   0  0  0  0  0  0  0  0  0  0  0  0
  -28.1813   -8.3209   -4.7218 C   0  0  0  0  0  0  0  0  0  0  0  0
  -28.9078   -8.3929   -5.9158 C   0  0  0  0  0  0  0  0  0  0  0  0
  -28.2091   -6.8163   -3.2246 H   0  0  0  0  0  0  0  0  0  0  0  0
  -27.1400   -9.1773   -4.1122 C   0  0  0  0  0  0  0  0  0  0  0  0
  -27.4529  -10.4470   -3.6009 C   0  0  0  0  0  0  0  0  0  0  0  0
  -26.4514  -11.2902   -3.1027 C   0  0  0  0  0  0  0  0  0  0  0  0
  -25.1190  -10.8867   -3.1284 C   0  0  0  0  0  0  0  0  0  0  0  0
  -24.7931   -9.6226   -3.6061 C   0  0  0  0  0  0  0  0  0  0  0  0
  -25.8003   -8.7652   -4.0586 C   0  0  0  0  0  0  0  0  0  0  0  0
  -28.7720   -9.4835   -6.8969 C   0  0  0  0  0  0  0  0  0  0  0  0
  -27.6946   -9.5264   -7.7960 C   0  0  0  0  0  0  0  0  0  0  0  0
  -27.6493  -10.4775   -8.8218 C   0  0  0  0  0  0  0  0  0  0  0  0
  -28.6318  -11.4592   -8.9080 C   0  0  0  0  0  0  0  0  0  0  0  0
  -29.6666  -11.4792   -7.9799 C   0  0  0  0  0  0  0  0  0  0  0  0
  -29.7502  -10.4812   -7.0045 C   0  0  0  0  0  0  0  0  0  0  0  0
  -30.1212   -5.2553   -4.2513 C   0  0  0  0  0  0  0  0  0  0  0  0
  -31.2520   -5.2312   -3.7702 O   0  0  0  0  0  0  0  0  0  0  0  0
  -29.3206   -4.0489   -4.3335 C   0  0  0  0  0  0  0  0  0  0  0  0
  -28.8091   -3.3130   -3.2825 C   0  0  0  0  0  0  0  0  0  0  0  0
  -28.1847   -2.1916   -3.7233 O   0  0  0  0  0  0  0  0  0  0  0  0
  -28.2158   -2.2326   -5.0816 C   0  0  0  0  0  0  0  0  0  0  0  0
  -27.6780   -1.2597   -5.9260 C   0  0  0  0  0  0  0  0  0  0  0  0
  -27.7716   -1.5002   -7.3008 C   0  0  0  0  0  0  0  0  0  0  0  0
  -28.3847   -2.6597   -7.7710 C   0  0  0  0  0  0  0  0  0  0  0  0
  -28.4625   -2.9146   -9.1135 O   0  0  0  0  0  0  0  0  0  0  0  0
  -28.9407   -3.6077   -6.9084 C   0  0  0  0  0  0  0  0  0  0  0  0
  -28.8580   -3.3828   -5.5195 C   0  0  0  0  0  0  0  0  0  0  0  0
  -28.0051   -2.2080   -9.5989 H   0  0  0  0  0  0  0  0  0  0  0  0
  1  2  1  0  0  0
  2  3  2  0  0  0
  2  6  1  0  0  0
  3 20  1  0  0  0
  3  4  1  0  0  0
 20 21  2  0  0  0
 20 22  1  0  0  0
 22 23  2  0  0  0
 22 31  1  0  0  0
 23 24  1  0  0  0
 24 25  1  0  0  0
 25 26  1  0  0  0
 25 31  2  0  0  0
 26 27  2  0  0  0
 27 28  1  0  0  0
 28 29  1  0  0  0
 28 30  2  0  0  0
 29 32  1  0  0  0
 30 31  1  0  0  0
  4  5  1  0  0  0
  4  7  1  0  0  0
  5  8  1  0  0  0
  5  6  2  0  0  0
  8  9  1  0  0  0
  8 13  2  0  0  0
  9 10  2  0  0  0
 10 11  1  0  0  0
 11 12  2  0  0  0
 12 13  1  0  0  0
  6 14  1  0  0  0
 14 15  1  0  0  0
 14 19  2  0  0  0
 15 16  2  0  0  0
 16 17  1  0  0  0
 17 18  2  0  0  0
 18 19  1  0  0  0
M  END
> <minimizedAffinity>
-9.10609

$$$$
