CHEMBL4648279


 58 63  0  0  0  0  0  0  0  0999 V2000
  -27.6855   -4.0644   -8.3008 C   0  0  0  0  0  0  0  0  0  0  0  0
  -26.9979   -3.8127   -9.4432 N   0  0  0  0  0  0  0  0  0  0  0  0
  -27.1542   -2.6375  -10.0661 C   0  0  0  0  0  0  0  0  0  0  0  0
  -27.8172   -1.6216   -9.5338 N   0  0  0  0  0  0  0  0  0  0  0  0
  -28.4513   -1.8600   -8.3757 C   0  0  0  0  0  0  0  0  0  0  0  0
  -28.4863   -3.0829   -7.7166 C   0  0  0  0  0  0  0  0  0  0  0  0
  -29.3461   -3.2991   -6.5953 N   0  0  0  0  0  0  0  0  0  0  0  0
  -28.9585   -2.9082   -5.3113 C   0  0  0  0  0  0  0  0  0  0  0  0
  -27.9131   -2.3026   -5.0802 O   0  0  0  0  0  0  0  0  0  0  0  0
  -30.2924   -3.5987   -6.7740 H   0  0  0  0  0  0  0  0  0  0  0  0
  -29.8408   -3.1598   -4.1408 C   0  0  0  0  0  0  0  0  0  0  0  0
  -29.7350   -2.5216   -2.9026 C   0  0  0  0  0  0  0  0  0  0  0  0
  -30.6177   -2.8874   -1.8817 C   0  0  0  0  0  0  0  0  0  0  0  0
  -30.5601   -2.3034   -0.6485 O   0  0  0  0  0  0  0  0  0  0  0  0
  -31.5966   -3.8622   -2.0655 C   0  0  0  0  0  0  0  0  0  0  0  0
  -31.7053   -4.4785   -3.3005 C   0  0  0  0  0  0  0  0  0  0  0  0
  -32.6482   -5.4260   -3.5593 O   0  0  0  0  0  0  0  0  0  0  0  0
  -30.8406   -4.1371   -4.3275 C   0  0  0  0  0  0  0  0  0  0  0  0
  -29.8883   -1.6044   -0.6442 H   0  0  0  0  0  0  0  0  0  0  0  0
  -33.2175   -5.5303   -2.7792 H   0  0  0  0  0  0  0  0  0  0  0  0
  -27.5888   -5.4058   -7.7859 N   0  0  0  0  0  0  0  0  0  0  0  0
  -27.3213   -5.3471   -6.8032 H   0  0  0  0  0  0  0  0  0  0  0  0
  -28.8113   -7.5296   -8.4174 C   0  0  0  0  0  0  0  0  0  0  0  0
  -30.0015   -8.2776   -8.3785 C   0  0  0  0  0  0  0  0  0  0  0  0
  -31.1416   -7.7882   -7.7198 C   0  0  0  0  0  0  0  0  0  0  0  0
  -31.0784   -6.5715   -7.0539 C   0  0  0  0  0  0  0  0  0  0  0  0
  -29.8961   -5.8476   -7.0799 C   0  0  0  0  0  0  0  0  0  0  0  0
  -28.7546   -6.2655   -7.8168 C   0  0  0  0  0  0  0  0  0  0  0  0
  -27.3750   -8.3420   -9.1039 S   0  0  0  0  0  0  0  0  0  0  0  0
  -26.9145   -9.3235   -8.1367 O   0  0  0  0  0  0  0  0  0  0  0  0
  -26.4986   -7.2932   -9.5701 O   0  0  0  0  0  0  0  0  0  0  0  0
  -27.9474   -9.1886  -10.4565 N   0  0  0  0  0  0  0  0  0  0  0  0
  -28.9484   -9.0022  -10.5729 H   0  0  0  0  0  0  0  0  0  0  0  0
  -28.7716  -11.4682  -10.0769 C   0  0  0  0  0  0  0  0  0  0  0  0
  -27.5984  -10.6219  -10.5496 C   0  0  0  0  0  0  0  0  0  0  0  0
  -26.7101   -2.5868  -11.3821 N   0  0  0  0  0  0  0  0  0  0  0  0
  -27.3866   -3.0455  -11.9752 H   0  0  0  0  0  0  0  0  0  0  0  0
  -25.7800   -1.7479  -11.9980 C   0  0  0  0  0  0  0  0  0  0  0  0
  -24.8424   -0.9863  -11.3036 C   0  0  0  0  0  0  0  0  0  0  0  0
  -23.8930   -0.2247  -11.9839 C   0  0  0  0  0  0  0  0  0  0  0  0
  -23.8420   -0.1758  -13.3901 C   0  0  0  0  0  0  0  0  0  0  0  0
  -24.8552   -0.8762  -14.0961 C   0  0  0  0  0  0  0  0  0  0  0  0
  -25.7926   -1.6480  -13.3933 C   0  0  0  0  0  0  0  0  0  0  0  0
  -22.7376    0.4813  -13.9555 N   0  0  0  0  0  0  0  0  0  0  0  0
  -22.4456    1.8174  -13.4606 C   0  0  0  0  0  0  0  0  0  0  0  0
  -21.6606    2.5799  -14.5136 C   0  0  0  0  0  0  0  0  0  0  0  0
  -20.3825    1.8727  -14.9816 C   0  0  0  0  0  0  0  0  0  0  0  0
  -20.6410    0.3596  -15.2156 C   0  0  0  0  0  0  0  0  0  0  0  0
  -21.5352   -0.3345  -14.1815 C   0  0  0  0  0  0  0  0  0  0  0  0
  -19.1276    2.1637  -14.2564 N   0  0  0  0  0  0  0  0  0  0  0  0
  -18.5246    3.4904  -14.4028 C   0  0  0  0  0  0  0  0  0  0  0  0
  -17.5526    3.6577  -15.5897 C   0  0  0  0  0  0  0  0  0  0  0  0
  -16.4717    2.6622  -15.6055 N   0  0  0  0  0  0  0  0  0  0  0  0
  -15.6842    2.8197  -16.8302 C   0  0  0  0  0  0  0  0  0  0  0  0
  -17.0353    1.3017  -15.5168 C   0  0  0  0  0  0  0  0  0  0  0  0
  -18.0832    1.1220  -14.3843 C   0  0  0  0  0  0  0  0  0  0  0  0
  -24.8721   -0.8107  -15.4707 O   0  0  0  0  0  0  0  0  0  0  0  0
  -26.1464   -0.8416  -16.1078 C   0  0  0  0  0  0  0  0  0  0  0  0
 34 35  1  0  0  0
 35 32  1  0  0  0
 32 29  1  0  0  0
 32 33  1  0  0  0
 29 30  2  0  0  0
 29 31  2  0  0  0
 29 23  1  0  0  0
 23 24  1  0  0  0
 23 28  2  0  0  0
 24 25  2  0  0  0
 25 26  1  0  0  0
 26 27  2  0  0  0
 27 28  1  0  0  0
 28 21  1  0  0  0
 21  1  1  0  0  0
 21 22  1  0  0  0
  1  2  1  0  0  0
  1  6  2  0  0  0
  2  3  2  0  0  0
  3 36  1  0  0  0
  3  4  1  0  0  0
 36 38  1  0  0  0
 36 37  1  0  0  0
 38 39  1  0  0  0
 38 43  2  0  0  0
 39 40  2  0  0  0
 40 41  1  0  0  0
 41 44  1  0  0  0
 41 42  2  0  0  0
 44 45  1  0  0  0
 44 49  1  0  0  0
 45 46  1  0  0  0
 46 47  1  0  0  0
 47 50  1  0  0  0
 47 48  1  0  0  0
 50 51  1  0  0  0
 50 56  1  0  0  0
 51 52  1  0  0  0
 52 53  1  0  0  0
 53 54  1  0  0  0
 53 55  1  0  0  0
 55 56  1  0  0  0
 48 49  1  0  0  0
 42 57  1  0  0  0
 42 43  1  0  0  0
 57 58  1  0  0  0
  4  5  2  0  0  0
  5  6  1  0  0  0
  6  7  1  0  0  0
  7  8  1  0  0  0
  7 10  1  0  0  0
  8  9  2  0  0  0
  8 11  1  0  0  0
 11 12  1  0  0  0
 11 18  2  0  0  0
 12 13  2  0  0  0
 13 14  1  0  0  0
 13 15  1  0  0  0
 14 19  1  0  0  0
 15 16  2  0  0  0
 16 17  1  0  0  0
 16 18  1  0  0  0
 17 20  1  0  0  0
M  END
> <minimizedAffinity>
-6.84178

$$$$
