CHEMBL3931953


 37 41  0  0  0  0  0  0  0  0999 V2000
  -30.1361   -4.0756   -7.0708 S   0  0  0  0  0  0  0  0  0  0  0  0
  -29.2568   -5.2617   -6.0448 C   0  0  0  0  0  0  0  0  0  0  0  0
  -28.3460   -4.8810   -5.0434 C   0  0  0  0  0  0  0  0  0  0  0  0
  -27.6623   -5.8400   -4.2547 C   0  0  0  0  0  0  0  0  0  0  0  0
  -28.0489   -7.1920   -4.3626 C   0  0  0  0  0  0  0  0  0  0  0  0
  -27.7072   -8.5052   -3.8788 C   0  0  0  0  0  0  0  0  0  0  0  0
  -28.8807   -9.1450   -3.6948 N   0  0  0  0  0  0  0  0  0  0  0  0
  -29.5851   -8.6783   -4.7377 N   0  0  0  0  0  0  0  0  0  0  0  0
  -29.1371   -7.4577   -5.1784 C   0  0  0  0  0  0  0  0  0  0  0  0
  -29.6497   -6.5963   -6.1421 C   0  0  0  0  0  0  0  0  0  0  0  0
  -30.4159   -9.1788   -5.0216 H   0  0  0  0  0  0  0  0  0  0  0  0
  -26.6328   -9.3774   -4.3238 C   0  0  0  0  0  0  0  0  0  0  0  0
  -25.5023   -9.6963   -3.6714 C   0  0  0  0  0  0  0  0  0  0  0  0
  -24.2564  -10.1106   -4.3593 C   0  0  0  0  0  0  0  0  0  0  0  0
  -24.1081   -9.8580   -5.7199 C   0  0  0  0  0  0  0  0  0  0  0  0
  -23.0007  -10.3724   -6.3947 C   0  0  0  0  0  0  0  0  0  0  0  0
  -22.0764  -11.1416   -5.7026 C   0  0  0  0  0  0  0  0  0  0  0  0
  -22.2991  -11.3622   -4.3539 C   0  0  0  0  0  0  0  0  0  0  0  0
  -23.3599  -10.8655   -3.6709 N   0  0  0  0  0  0  0  0  0  0  0  0
  -28.1773   -2.0607   -7.5530 C   0  0  0  0  0  0  0  0  0  0  0  0
  -27.5558   -0.8472   -7.1696 C   0  0  0  0  0  0  0  0  0  0  0  0
  -27.9996   -0.1108   -6.0858 C   0  0  0  0  0  0  0  0  0  0  0  0
  -29.0894   -0.5614   -5.3550 C   0  0  0  0  0  0  0  0  0  0  0  0
  -29.7053   -1.7635   -5.7011 C   0  0  0  0  0  0  0  0  0  0  0  0
  -29.2488   -2.5485   -6.7763 C   0  0  0  0  0  0  0  0  0  0  0  0
  -27.5638   -3.8954   -8.8948 O   0  0  0  0  0  0  0  0  0  0  0  0
  -27.6293   -2.6693   -8.8017 C   0  0  0  0  0  0  0  0  0  0  0  0
  -27.1336   -1.8070   -9.7661 N   0  0  0  0  0  0  0  0  0  0  0  0
  -27.2633   -0.8000   -9.7415 H   0  0  0  0  0  0  0  0  0  0  0  0
  -26.3871   -2.3607  -10.8113 N   0  0  0  0  0  0  0  0  0  0  0  0
  -26.9200   -2.8145  -11.5501 H   0  0  0  0  0  0  0  0  0  0  0  0
  -25.3197   -1.6201  -11.3353 C   0  0  0  0  0  0  0  0  0  0  0  0
  -25.4251   -0.2598  -11.6146 C   0  0  0  0  0  0  0  0  0  0  0  0
  -24.3109    0.4380  -12.0849 C   0  0  0  0  0  0  0  0  0  0  0  0
  -23.1089   -0.2389  -12.2384 C   0  0  0  0  0  0  0  0  0  0  0  0
  -23.0784   -1.5853  -11.9226 C   0  0  0  0  0  0  0  0  0  0  0  0
  -24.1519   -2.2835  -11.4869 N   0  0  0  0  0  0  0  0  0  0  0  0
 26 27  2  0  0  0
 27 28  1  0  0  0
 27 20  1  0  0  0
 28 30  1  0  0  0
 28 29  1  0  0  0
 30 32  1  0  0  0
 30 31  1  0  0  0
 32 33  1  0  0  0
 32 37  2  0  0  0
 33 34  2  0  0  0
 34 35  1  0  0  0
 35 36  2  0  0  0
 36 37  1  0  0  0
 20 21  1  0  0  0
 20 25  2  0  0  0
 21 22  2  0  0  0
 22 23  1  0  0  0
 23 24  2  0  0  0
 24 25  1  0  0  0
 25  1  1  0  0  0
  1  2  1  0  0  0
  2  3  1  0  0  0
  2 10  2  0  0  0
  3  4  2  0  0  0
  4  5  1  0  0  0
  5  6  1  0  0  0
  5  9  2  0  0  0
  6 12  1  0  0  0
  6  7  2  0  0  0
 12 13  2  0  0  0
 13 14  1  0  0  0
 14 15  1  0  0  0
 14 19  2  0  0  0
 15 16  2  0  0  0
 16 17  1  0  0  0
 17 18  2  0  0  0
 18 19  1  0  0  0
  7  8  1  0  0  0
  8  9  1  0  0  0
  8 11  1  0  0  0
  9 10  1  0  0  0
M  END
> <minimizedAffinity>
-10.03399

$$$$
