CHEMBL4074672


 31 35  0  0  0  0  0  0  0  0999 V2000
  -28.1939   -3.0614   -9.4036 O   0  0  0  0  0  0  0  0  0  0  0  0
  -27.6112   -2.0526   -9.7267 C   0  0  0  0  0  0  0  0  0  0  0  0
  -27.3973   -0.8756   -9.0124 N   0  0  0  0  0  0  0  0  0  0  0  0
  -27.2087   -1.8986  -11.0763 N   0  0  0  0  0  0  0  0  0  0  0  0
  -28.0553   -2.0624  -12.1693 C   0  0  0  0  0  0  0  0  0  0  0  0
  -27.3432   -1.8410  -13.3265 C   0  0  0  0  0  0  0  0  0  0  0  0
  -25.9949   -1.5826  -12.9666 C   0  0  0  0  0  0  0  0  0  0  0  0
  -24.8150   -1.3201  -13.7108 C   0  0  0  0  0  0  0  0  0  0  0  0
  -23.6028   -1.0834  -13.0459 C   0  0  0  0  0  0  0  0  0  0  0  0
  -23.5854   -1.0640  -11.6508 C   0  0  0  0  0  0  0  0  0  0  0  0
  -24.7322   -1.3446  -10.8947 C   0  0  0  0  0  0  0  0  0  0  0  0
  -25.9384   -1.5882  -11.5663 C   0  0  0  0  0  0  0  0  0  0  0  0
  -27.2188   -0.0182   -9.5107 H   0  0  0  0  0  0  0  0  0  0  0  0
  -27.7510   -0.7807   -7.6662 C   0  0  0  0  0  0  0  0  0  0  0  0
  -27.6040   -1.8033   -6.6837 C   0  0  0  0  0  0  0  0  0  0  0  0
  -28.1271   -1.2611   -5.5239 C   0  0  0  0  0  0  0  0  0  0  0  0
  -28.5341    0.0065   -5.7891 O   0  0  0  0  0  0  0  0  0  0  0  0
  -28.3091    0.2975   -7.1153 N   0  0  0  0  0  0  0  0  0  0  0  0
  -28.2382   -1.9410   -4.1625 C   0  0  0  0  0  0  0  0  0  0  0  0
  -28.4121   -3.4416   -4.0357 C   0  0  0  0  0  0  0  0  0  0  0  0
  -29.5827   -2.5562   -3.7924 C   0  0  0  0  0  0  0  0  0  0  0  0
  -22.4984   -0.7798  -13.8277 O   0  0  0  0  0  0  0  0  0  0  0  0
  -22.2052    0.5612  -14.0843 C   0  0  0  0  0  0  0  0  0  0  0  0
  -20.9802    0.8612  -14.6521 C   0  0  0  0  0  0  0  0  0  0  0  0
  -20.6526    2.2074  -14.7249 C   0  0  0  0  0  0  0  0  0  0  0  0
  -21.5278    3.1769  -14.3702 N   0  0  0  0  0  0  0  0  0  0  0  0
  -22.7152    2.7667  -13.9035 C   0  0  0  0  0  0  0  0  0  0  0  0
  -23.0823    1.5024  -13.6942 N   0  0  0  0  0  0  0  0  0  0  0  0
  -19.2617    2.6610  -15.1057 C   0  0  0  0  0  0  0  0  0  0  0  0
  -19.1697    4.0848  -15.1184 O   0  0  0  0  0  0  0  0  0  0  0  0
  -19.7648    4.3951  -15.8250 H   0  0  0  0  0  0  0  0  0  0  0  0
  1  2  2  0  0  0
  2  3  1  0  0  0
  2  4  1  0  0  0
  3 14  1  0  0  0
  3 13  1  0  0  0
 14 15  1  0  0  0
 14 18  2  0  0  0
 15 16  2  0  0  0
 16 19  1  0  0  0
 16 17  1  0  0  0
 19 20  1  0  0  0
 19 21  1  0  0  0
 20 21  1  0  0  0
 17 18  1  0  0  0
  4  5  1  0  0  0
  4 12  1  0  0  0
  5  6  2  0  0  0
  6  7  1  0  0  0
  7  8  1  0  0  0
  7 12  2  0  0  0
  8  9  2  0  0  0
  9 22  1  0  0  0
  9 10  1  0  0  0
 22 23  1  0  0  0
 23 24  1  0  0  0
 23 28  2  0  0  0
 24 25  2  0  0  0
 25 29  1  0  0  0
 25 26  1  0  0  0
 29 30  1  0  0  0
 30 31  1  0  0  0
 26 27  2  0  0  0
 27 28  1  0  0  0
 10 11  2  0  0  0
 11 12  1  0  0  0
M  END
> <minimizedAffinity>
-9.56047

$$$$
