CHEMBL231569


 36 39  0  0  0  0  0  0  0  0999 V2000
  -29.9436   -6.0197   -6.5238 C   0  0  0  0  0  0  0  0  0  0  0  0
  -30.1637   -5.0763   -5.5048 C   0  0  0  0  0  0  0  0  0  0  0  0
  -29.6864   -3.7621   -5.6037 C   0  0  0  0  0  0  0  0  0  0  0  0
  -28.9439   -3.4805   -6.7407 C   0  0  0  0  0  0  0  0  0  0  0  0
  -28.3604   -2.2946   -7.0810 O   0  0  0  0  0  0  0  0  0  0  0  0
  -27.7903   -2.5483   -8.3002 C   0  0  0  0  0  0  0  0  0  0  0  0
  -27.9352   -3.7877   -8.7245 N   0  0  0  0  0  0  0  0  0  0  0  0
  -28.6681   -4.3934   -7.7435 C   0  0  0  0  0  0  0  0  0  0  0  0
  -29.1544   -5.7018   -7.6379 C   0  0  0  0  0  0  0  0  0  0  0  0
  -27.1771   -1.5038   -8.8866 N   0  0  0  0  0  0  0  0  0  0  0  0
  -27.2384   -0.6020   -8.4344 H   0  0  0  0  0  0  0  0  0  0  0  0
  -26.7761   -1.4675  -10.2347 C   0  0  0  0  0  0  0  0  0  0  0  0
  -27.6975   -1.5352  -11.2836 C   0  0  0  0  0  0  0  0  0  0  0  0
  -27.2740   -1.5878  -12.6084 C   0  0  0  0  0  0  0  0  0  0  0  0
  -25.9122   -1.5952  -12.9205 C   0  0  0  0  0  0  0  0  0  0  0  0
  -25.5628   -1.8154  -14.6005 Cl  0  0  0  0  0  0  0  0  0  0  0  0
  -24.9603   -1.4886  -11.8921 C   0  0  0  0  0  0  0  0  0  0  0  0
  -25.4117   -1.4407  -10.5579 C   0  0  0  0  0  0  0  0  0  0  0  0
  -23.5873   -1.4598  -11.9860 O   0  0  0  0  0  0  0  0  0  0  0  0
  -22.9926   -0.1843  -12.2303 C   0  0  0  0  0  0  0  0  0  0  0  0
  -22.4960   -0.0777  -13.6828 C   0  0  0  0  0  0  0  0  0  0  0  0
  -21.4797    0.9811  -13.8689 N   0  0  0  0  0  0  0  0  0  0  0  0
  -20.5620    0.6849  -14.9722 C   0  0  0  0  0  0  0  0  0  0  0  0
  -22.1236    2.2749  -14.0972 C   0  0  0  0  0  0  0  0  0  0  0  0
  -30.4311   -7.3100   -6.4941 O   0  0  0  0  0  0  0  0  0  0  0  0
  -27.6214   -9.5785   -5.8221 C   0  0  0  0  0  0  0  0  0  0  0  0
  -28.4838   -8.5109   -5.6327 C   0  0  0  0  0  0  0  0  0  0  0  0
  -29.5481   -8.3695   -6.5124 C   0  0  0  0  0  0  0  0  0  0  0  0
  -29.7893   -9.3576   -7.4611 C   0  0  0  0  0  0  0  0  0  0  0  0
  -28.9001  -10.4169   -7.5485 C   0  0  0  0  0  0  0  0  0  0  0  0
  -27.8091  -10.5451   -6.7673 N   0  0  0  0  0  0  0  0  0  0  0  0
  -23.9199   -9.7139   -5.0691 C   0  0  0  0  0  0  0  0  0  0  0  0
  -25.2009   -9.6320   -5.7144 N   0  0  0  0  0  0  0  0  0  0  0  0
  -26.3755   -9.6677   -4.9978 C   0  0  0  0  0  0  0  0  0  0  0  0
  -26.4255   -9.7439   -3.7748 O   0  0  0  0  0  0  0  0  0  0  0  0
  -25.2796   -9.5421   -6.7243 H   0  0  0  0  0  0  0  0  0  0  0  0
 32 33  1  0  0  0
 33 34  1  0  0  0
 33 36  1  0  0  0
 34 35  2  0  0  0
 34 26  1  0  0  0
 26 27  1  0  0  0
 26 31  2  0  0  0
 27 28  2  0  0  0
 28 25  1  0  0  0
 28 29  1  0  0  0
 25  1  1  0  0  0
  1  2  1  0  0  0
  1  9  2  0  0  0
  2  3  2  0  0  0
  3  4  1  0  0  0
  4  5  1  0  0  0
  4  8  2  0  0  0
  5  6  1  0  0  0
  6 10  1  0  0  0
  6  7  2  0  0  0
 10 12  1  0  0  0
 10 11  1  0  0  0
 12 13  1  0  0  0
 12 18  2  0  0  0
 13 14  2  0  0  0
 14 15  1  0  0  0
 15 16  1  0  0  0
 15 17  2  0  0  0
 17 19  1  0  0  0
 17 18  1  0  0  0
 19 20  1  0  0  0
 20 21  1  0  0  0
 21 22  1  0  0  0
 22 23  1  0  0  0
 22 24  1  0  0  0
  7  8  1  0  0  0
  8  9  1  0  0  0
 29 30  2  0  0  0
 30 31  1  0  0  0
M  END
> <minimizedAffinity>
-8.52691

$$$$
