CHEMBL1242477


 25 28  0  0  0  0  0  0  0  0999 V2000
  -28.6046   -0.8558   -6.7027 N   0  0  0  0  0  0  0  0  0  0  0  0
  -28.0577   -0.4926   -7.8820 N   0  0  0  0  0  0  0  0  0  0  0  0
  -27.8212   -1.6581   -8.5197 C   0  0  0  0  0  0  0  0  0  0  0  0
  -28.1666   -2.7765   -7.6906 C   0  0  0  0  0  0  0  0  0  0  0  0
  -28.1325   -4.1799   -7.7250 C   0  0  0  0  0  0  0  0  0  0  0  0
  -27.6088   -4.9514   -8.7545 N   0  0  0  0  0  0  0  0  0  0  0  0
  -28.6189   -4.8716   -6.6727 N   0  0  0  0  0  0  0  0  0  0  0  0
  -29.1102   -4.1892   -5.6231 C   0  0  0  0  0  0  0  0  0  0  0  0
  -29.1686   -2.8595   -5.4645 N   0  0  0  0  0  0  0  0  0  0  0  0
  -28.6844   -2.2098   -6.5353 C   0  0  0  0  0  0  0  0  0  0  0  0
  -26.7956   -4.5533   -9.2073 H   0  0  0  0  0  0  0  0  0  0  0  0
  -27.5070   -5.9139   -8.4506 H   0  0  0  0  0  0  0  0  0  0  0  0
  -27.2779   -1.6410   -9.8866 C   0  0  0  0  0  0  0  0  0  0  0  0
  -28.1258   -1.6059  -11.0021 C   0  0  0  0  0  0  0  0  0  0  0  0
  -27.6270   -1.6267  -12.3132 C   0  0  0  0  0  0  0  0  0  0  0  0
  -26.2387   -1.6077  -12.5045 C   0  0  0  0  0  0  0  0  0  0  0  0
  -25.3626   -1.5797  -13.6111 C   0  0  0  0  0  0  0  0  0  0  0  0
  -24.0778   -1.5356  -13.2504 N   0  0  0  0  0  0  0  0  0  0  0  0
  -24.1320   -1.5312  -11.9052 N   0  0  0  0  0  0  0  0  0  0  0  0
  -25.4025   -1.5926  -11.3955 C   0  0  0  0  0  0  0  0  0  0  0  0
  -25.8815   -1.6229  -10.0791 C   0  0  0  0  0  0  0  0  0  0  0  0
  -23.2614   -1.4756  -11.3896 H   0  0  0  0  0  0  0  0  0  0  0  0
  -27.9341    0.5906   -4.8104 C   0  0  0  0  0  0  0  0  0  0  0  0
  -29.0543    0.1633   -5.7594 C   0  0  0  0  0  0  0  0  0  0  0  0
  -29.6514    1.3702   -6.4835 C   0  0  0  0  0  0  0  0  0  0  0  0
 23 24  1  0  0  0
 24 25  1  0  0  0
 24  1  1  0  0  0
  1  2  1  0  0  0
  1 10  1  0  0  0
  2  3  2  0  0  0
  3 13  1  0  0  0
  3  4  1  0  0  0
 13 14  1  0  0  0
 13 21  2  0  0  0
 14 15  2  0  0  0
 15 16  1  0  0  0
 16 17  1  0  0  0
 16 20  2  0  0  0
 17 18  2  0  0  0
 18 19  1  0  0  0
 19 20  1  0  0  0
 19 22  1  0  0  0
 20 21  1  0  0  0
  4  5  1  0  0  0
  4 10  2  0  0  0
  5  6  1  0  0  0
  5  7  2  0  0  0
  6 11  1  0  0  0
  6 12  1  0  0  0
  7  8  1  0  0  0
  8  9  2  0  0  0
  9 10  1  0  0  0
M  END
> <minimizedAffinity>
-8.16265

$$$$
