CHEMBL219493


 36 41  0  0  0  0  0  0  0  0999 V2000
  -28.7137   -8.3326   -5.3130 N   0  0  0  0  0  0  0  0  0  0  0  0
  -28.2260   -8.7651   -6.5682 C   0  0  0  0  0  0  0  0  0  0  0  0
  -27.5934   -9.9555   -6.9755 C   0  0  0  0  0  0  0  0  0  0  0  0
  -27.1690  -10.0772   -8.3185 C   0  0  0  0  0  0  0  0  0  0  0  0
  -27.3741   -9.0557   -9.2471 C   0  0  0  0  0  0  0  0  0  0  0  0
  -27.9806   -7.8741   -8.8216 C   0  0  0  0  0  0  0  0  0  0  0  0
  -28.3820   -7.7137   -7.4816 C   0  0  0  0  0  0  0  0  0  0  0  0
  -28.8441   -6.6923   -6.6802 C   0  0  0  0  0  0  0  0  0  0  0  0
  -28.7440   -5.3403   -7.0408 C   0  0  0  0  0  0  0  0  0  0  0  0
  -28.7628   -4.4300   -5.9669 C   0  0  0  0  0  0  0  0  0  0  0  0
  -29.0145   -4.7969   -4.6348 C   0  0  0  0  0  0  0  0  0  0  0  0
  -29.7089   -6.0472   -4.5225 C   0  0  0  0  0  0  0  0  0  0  0  0
  -29.2181   -7.0331   -5.4112 C   0  0  0  0  0  0  0  0  0  0  0  0
  -31.2525   -5.8330   -4.2204 C   0  0  0  0  0  0  0  0  0  0  0  0
  -31.7352   -4.3229   -4.3145 C   0  0  0  0  0  0  0  0  0  0  0  0
  -30.7746   -3.5188   -3.5117 C   0  0  0  0  0  0  0  0  0  0  0  0
  -31.0232   -2.8010   -2.4176 N   0  0  0  0  0  0  0  0  0  0  0  0
  -29.7910   -2.6809   -1.8601 N   0  0  0  0  0  0  0  0  0  0  0  0
  -29.6495   -2.0680   -0.5616 C   0  0  0  0  0  0  0  0  0  0  0  0
  -28.8150   -3.3810   -2.5282 C   0  0  0  0  0  0  0  0  0  0  0  0
  -29.4079   -3.7792   -3.6970 C   0  0  0  0  0  0  0  0  0  0  0  0
  -28.6431   -3.1024   -6.5288 C   0  0  0  0  0  0  0  0  0  0  0  0
  -28.6523   -1.9797   -6.0515 O   0  0  0  0  0  0  0  0  0  0  0  0
  -28.5628   -3.3197   -7.9018 N   0  0  0  0  0  0  0  0  0  0  0  0
  -28.5593   -4.6968   -8.3343 C   0  0  0  0  0  0  0  0  0  0  0  0
  -28.5662   -2.5255   -8.5245 H   0  0  0  0  0  0  0  0  0  0  0  0
  -26.9899   -9.0914  -10.5986 N   0  0  0  0  0  0  0  0  0  0  0  0
  -27.6436   -9.6735  -11.6507 C   0  0  0  0  0  0  0  0  0  0  0  0
  -28.7150  -10.2671  -11.6270 O   0  0  0  0  0  0  0  0  0  0  0  0
  -26.1274   -8.6582  -10.8707 H   0  0  0  0  0  0  0  0  0  0  0  0
  -26.8973   -9.4706  -12.7719 O   0  0  0  0  0  0  0  0  0  0  0  0
  -27.6335   -9.4758  -14.0085 C   0  0  0  0  0  0  0  0  0  0  0  0
  -26.7099   -9.2427  -15.1899 C   0  0  0  0  0  0  0  0  0  0  0  0
  -28.5624   -9.0977   -4.0796 C   0  0  0  0  0  0  0  0  0  0  0  0
  -26.6727  -10.7340   -3.4894 C   0  0  0  0  0  0  0  0  0  0  0  0
  -27.1150   -9.2822   -3.5936 C   0  0  0  0  0  0  0  0  0  0  0  0
 35 36  1  0  0  0
 36 34  1  0  0  0
 34  1  1  0  0  0
  1  2  1  0  0  0
  1 13  1  0  0  0
  2  3  1  0  0  0
  2  7  2  0  0  0
  3  4  2  0  0  0
  4  5  1  0  0  0
  5 27  1  0  0  0
  5  6  2  0  0  0
 27 28  1  0  0  0
 27 30  1  0  0  0
 28 29  2  0  0  0
 28 31  1  0  0  0
 31 32  1  0  0  0
 32 33  1  0  0  0
  6  7  1  0  0  0
  7  8  1  0  0  0
  8  9  1  0  0  0
  8 13  2  0  0  0
  9 10  2  0  0  0
  9 25  1  0  0  0
 10 11  1  0  0  0
 10 22  1  0  0  0
 11 12  2  0  0  0
 11 21  1  0  0  0
 12 13  1  0  0  0
 12 14  1  0  0  0
 14 15  1  0  0  0
 15 16  1  0  0  0
 16 17  2  0  0  0
 16 21  1  0  0  0
 17 18  1  0  0  0
 18 19  1  0  0  0
 18 20  1  0  0  0
 20 21  2  0  0  0
 22 23  2  0  0  0
 22 24  1  0  0  0
 24 25  1  0  0  0
 24 26  1  0  0  0
M  END
> <minimizedAffinity>
-5.86886

$$$$
