CHEMBL2000652


 33 36  0  0  0  0  0  0  0  0999 V2000
  -22.7207   -0.3332  -13.5374 C   0  0  0  0  0  0  0  0  0  0  0  0
  -22.6890   -0.5239  -12.1428 C   0  0  0  0  0  0  0  0  0  0  0  0
  -23.7364   -1.1589  -11.4702 C   0  0  0  0  0  0  0  0  0  0  0  0
  -24.8915   -1.5558  -12.1373 C   0  0  0  0  0  0  0  0  0  0  0  0
  -24.9865   -1.2591  -13.4972 C   0  0  0  0  0  0  0  0  0  0  0  0
  -26.1027   -1.5746  -14.1755 F   0  0  0  0  0  0  0  0  0  0  0  0
  -23.9192   -0.6807  -14.1889 C   0  0  0  0  0  0  0  0  0  0  0  0
  -23.0670    3.0560  -13.3747 N   0  0  0  0  0  0  0  0  0  0  0  0
  -21.9403    2.8716  -14.0787 C   0  0  0  0  0  0  0  0  0  0  0  0
  -21.2623    3.9249  -14.5234 N   0  0  0  0  0  0  0  0  0  0  0  0
  -20.2061    3.3886  -15.1353 N   0  0  0  0  0  0  0  0  0  0  0  0
  -20.1747    2.0218  -15.1172 C   0  0  0  0  0  0  0  0  0  0  0  0
  -19.2248    1.1433  -15.6423 C   0  0  0  0  0  0  0  0  0  0  0  0
  -19.4644   -0.2162  -15.4933 C   0  0  0  0  0  0  0  0  0  0  0  0
  -20.6070   -0.6657  -14.8368 C   0  0  0  0  0  0  0  0  0  0  0  0
  -21.5666    0.2184  -14.2725 C   0  0  0  0  0  0  0  0  0  0  0  0
  -21.3288    1.6196  -14.4337 C   0  0  0  0  0  0  0  0  0  0  0  0
  -23.2647    4.0154  -13.1110 H   0  0  0  0  0  0  0  0  0  0  0  0
  -23.3389    2.3883  -12.6640 H   0  0  0  0  0  0  0  0  0  0  0  0
  -19.5260    4.0138  -15.5501 H   0  0  0  0  0  0  0  0  0  0  0  0
  -25.9563   -2.2579  -11.5140 N   0  0  0  0  0  0  0  0  0  0  0  0
  -26.4489   -1.9782  -10.2504 C   0  0  0  0  0  0  0  0  0  0  0  0
  -26.0373   -1.0858   -9.5180 O   0  0  0  0  0  0  0  0  0  0  0  0
  -27.4376   -2.8700   -9.8602 N   0  0  0  0  0  0  0  0  0  0  0  0
  -26.2874   -3.0829  -11.9902 H   0  0  0  0  0  0  0  0  0  0  0  0
  -27.3043   -3.8141  -10.1907 H   0  0  0  0  0  0  0  0  0  0  0  0
  -28.0513   -2.7320   -8.5914 C   0  0  0  0  0  0  0  0  0  0  0  0
  -28.8386   -3.7817   -8.1110 C   0  0  0  0  0  0  0  0  0  0  0  0
  -29.4054   -3.7043   -6.8361 C   0  0  0  0  0  0  0  0  0  0  0  0
  -29.2284   -2.5587   -6.0594 C   0  0  0  0  0  0  0  0  0  0  0  0
  -28.4688   -1.5002   -6.5533 C   0  0  0  0  0  0  0  0  0  0  0  0
  -28.2741   -0.0783   -5.6023 Cl  0  0  0  0  0  0  0  0  0  0  0  0
  -27.8680   -1.5866   -7.8085 C   0  0  0  0  0  0  0  0  0  0  0  0
  8  9  1  0  0  0
  8 18  1  0  0  0
  8 19  1  0  0  0
  9 10  2  0  0  0
  9 17  1  0  0  0
 10 11  1  0  0  0
 11 12  1  0  0  0
 11 20  1  0  0  0
 12 13  1  0  0  0
 12 17  2  0  0  0
 13 14  2  0  0  0
 14 15  1  0  0  0
 15 16  2  0  0  0
 16  1  1  0  0  0
 16 17  1  0  0  0
  1  2  1  0  0  0
  1  7  2  0  0  0
  2  3  2  0  0  0
  3  4  1  0  0  0
  4 21  1  0  0  0
  4  5  2  0  0  0
 21 22  1  0  0  0
 21 25  1  0  0  0
 22 23  2  0  0  0
 22 24  1  0  0  0
 24 27  1  0  0  0
 24 26  1  0  0  0
 27 28  1  0  0  0
 27 33  2  0  0  0
 28 29  2  0  0  0
 29 30  1  0  0  0
 30 31  2  0  0  0
 31 32  1  0  0  0
 31 33  1  0  0  0
  5  6  1  0  0  0
  5  7  1  0  0  0
M  END
> <minimizedAffinity>
-10.25043

$$$$
