CHEMBL1934324


 36 40  0  0  0  0  0  0  0  0999 V2000
  -27.1204   -1.8578  -10.6712 C   0  0  0  0  0  0  0  0  0  0  0  0
  -25.9414   -1.3276  -10.2149 C   0  0  0  0  0  0  0  0  0  0  0  0
  -25.0096   -0.8463  -11.1380 C   0  0  0  0  0  0  0  0  0  0  0  0
  -25.1952   -1.0059  -12.5243 C   0  0  0  0  0  0  0  0  0  0  0  0
  -24.2420   -0.6992  -13.5271 C   0  0  0  0  0  0  0  0  0  0  0  0
  -24.5373   -0.8354  -14.8296 N   0  0  0  0  0  0  0  0  0  0  0  0
  -25.7561   -1.2399  -15.1448 C   0  0  0  0  0  0  0  0  0  0  0  0
  -26.7111   -1.6099  -14.2847 N   0  0  0  0  0  0  0  0  0  0  0  0
  -26.4146   -1.5016  -12.9943 C   0  0  0  0  0  0  0  0  0  0  0  0
  -27.3692   -1.8950  -12.0607 C   0  0  0  0  0  0  0  0  0  0  0  0
  -22.9453   -0.2654  -13.1795 N   0  0  0  0  0  0  0  0  0  0  0  0
  -22.7453   -0.3210  -12.2013 H   0  0  0  0  0  0  0  0  0  0  0  0
  -22.1138    0.6396  -13.8828 C   0  0  0  0  0  0  0  0  0  0  0  0
  -21.0251    0.2145  -14.6318 C   0  0  0  0  0  0  0  0  0  0  0  0
  -20.0751    1.1149  -15.1138 C   0  0  0  0  0  0  0  0  0  0  0  0
  -20.1865    2.4827  -14.8708 C   0  0  0  0  0  0  0  0  0  0  0  0
  -21.3316    2.9377  -14.2067 C   0  0  0  0  0  0  0  0  0  0  0  0
  -22.2870    2.0211  -13.7171 C   0  0  0  0  0  0  0  0  0  0  0  0
  -19.1762    3.4120  -15.2354 N   0  0  0  0  0  0  0  0  0  0  0  0
  -17.9065    3.0589  -15.6817 C   0  0  0  0  0  0  0  0  0  0  0  0
  -17.4808    1.9317  -15.8126 O   0  0  0  0  0  0  0  0  0  0  0  0
  -17.1280    4.1507  -16.0377 N   0  0  0  0  0  0  0  0  0  0  0  0
  -19.3615    4.3859  -15.0718 H   0  0  0  0  0  0  0  0  0  0  0  0
  -17.3299    5.0519  -15.6377 H   0  0  0  0  0  0  0  0  0  0  0  0
  -15.8001    3.9086  -16.5403 C   0  0  0  0  0  0  0  0  0  0  0  0
  -14.5620    4.4849  -15.9138 C   0  0  0  0  0  0  0  0  0  0  0  0
  -15.0602    5.0381  -17.2143 C   0  0  0  0  0  0  0  0  0  0  0  0
  -28.0679   -2.3276   -9.7890 O   0  0  0  0  0  0  0  0  0  0  0  0
  -27.5731   -2.3852   -8.4360 C   0  0  0  0  0  0  0  0  0  0  0  0
  -27.4851   -4.4074   -4.2038 C   0  0  0  0  0  0  0  0  0  0  0  0
  -28.2008   -3.3989   -4.9869 N   0  0  0  0  0  0  0  0  0  0  0  0
  -27.2823   -2.3154   -5.3652 C   0  0  0  0  0  0  0  0  0  0  0  0
  -27.9831   -1.2526   -6.2116 C   0  0  0  0  0  0  0  0  0  0  0  0
  -28.6216   -1.8657   -7.4576 C   0  0  0  0  0  0  0  0  0  0  0  0
  -29.5651   -2.9978   -7.0310 C   0  0  0  0  0  0  0  0  0  0  0  0
  -28.8607   -4.0274   -6.1391 C   0  0  0  0  0  0  0  0  0  0  0  0
 30 31  1  0  0  0
 31 32  1  0  0  0
 31 36  1  0  0  0
 32 33  1  0  0  0
 33 34  1  0  0  0
 34 29  1  0  0  0
 34 35  1  0  0  0
 29 28  1  0  0  0
 28  1  1  0  0  0
  1  2  1  0  0  0
  1 10  2  0  0  0
  2  3  2  0  0  0
  3  4  1  0  0  0
  4  5  1  0  0  0
  4  9  2  0  0  0
  5 11  1  0  0  0
  5  6  2  0  0  0
 11 13  1  0  0  0
 11 12  1  0  0  0
 13 14  1  0  0  0
 13 18  2  0  0  0
 14 15  2  0  0  0
 15 16  1  0  0  0
 16 19  1  0  0  0
 16 17  2  0  0  0
 19 20  1  0  0  0
 19 23  1  0  0  0
 20 21  2  0  0  0
 20 22  1  0  0  0
 22 25  1  0  0  0
 22 24  1  0  0  0
 25 26  1  0  0  0
 25 27  1  0  0  0
 26 27  1  0  0  0
 17 18  1  0  0  0
  6  7  1  0  0  0
  7  8  2  0  0  0
  8  9  1  0  0  0
  9 10  1  0  0  0
 35 36  1  0  0  0
M  END
> <minimizedAffinity>
-9.73824

$$$$
