CHEMBL1241685


 31 34  0  0  0  0  0  0  0  0999 V2000
  -29.8052   -7.0771   -6.9280 O   0  0  0  0  0  0  0  0  0  0  0  0
  -26.3844  -10.5479   -8.5974 C   0  0  0  0  0  0  0  0  0  0  0  0
  -26.4824  -10.5884   -7.2041 C   0  0  0  0  0  0  0  0  0  0  0  0
  -27.3820   -9.8160   -6.4933 C   0  0  0  0  0  0  0  0  0  0  0  0
  -27.4544  -10.0535   -5.1791 N   0  0  0  0  0  0  0  0  0  0  0  0
  -28.3942   -9.4096   -4.4705 C   0  0  0  0  0  0  0  0  0  0  0  0
  -29.2408   -8.4713   -5.0125 C   0  0  0  0  0  0  0  0  0  0  0  0
  -29.0790   -8.1202   -6.3559 C   0  0  0  0  0  0  0  0  0  0  0  0
  -28.1791   -8.8665   -7.1644 C   0  0  0  0  0  0  0  0  0  0  0  0
  -28.0468   -8.7724   -8.5745 C   0  0  0  0  0  0  0  0  0  0  0  0
  -27.1816   -9.6293   -9.2960 C   0  0  0  0  0  0  0  0  0  0  0  0
  -27.2756   -9.5848  -10.7894 C   0  0  0  0  0  0  0  0  0  0  0  0
  -28.3725  -10.3045  -11.5330 C   0  0  0  0  0  0  0  0  0  0  0  0
  -26.4422   -8.9217  -11.4084 O   0  0  0  0  0  0  0  0  0  0  0  0
  -24.5851  -12.1135   -8.5407 C   0  0  0  0  0  0  0  0  0  0  0  0
  -25.5464  -11.3763   -9.2967 O   0  0  0  0  0  0  0  0  0  0  0  0
  -29.3538   -5.7825   -6.7219 C   0  0  0  0  0  0  0  0  0  0  0  0
  -29.4879   -5.1269   -5.5008 C   0  0  0  0  0  0  0  0  0  0  0  0
  -29.2120   -3.7591   -5.4066 C   0  0  0  0  0  0  0  0  0  0  0  0
  -28.7193   -3.0160   -6.5043 C   0  0  0  0  0  0  0  0  0  0  0  0
  -28.4909   -1.6032   -6.4922 C   0  0  0  0  0  0  0  0  0  0  0  0
  -27.9155   -0.9670   -7.6058 C   0  0  0  0  0  0  0  0  0  0  0  0
  -27.5750   -1.7025   -8.7359 C   0  0  0  0  0  0  0  0  0  0  0  0
  -27.8465   -3.0702   -8.7820 C   0  0  0  0  0  0  0  0  0  0  0  0
  -28.4361   -3.7367   -7.6923 C   0  0  0  0  0  0  0  0  0  0  0  0
  -28.7628   -5.1080   -7.7908 C   0  0  0  0  0  0  0  0  0  0  0  0
  -28.9458   -0.7450   -5.3498 C   0  0  0  0  0  0  0  0  0  0  0  0
  -29.9382    0.1646   -5.6037 N   0  0  0  0  0  0  0  0  0  0  0  0
  -28.4849   -0.8491   -4.2219 O   0  0  0  0  0  0  0  0  0  0  0  0
  -30.2872    0.3829   -6.5247 H   0  0  0  0  0  0  0  0  0  0  0  0
  -30.2218    0.7528   -4.8310 H   0  0  0  0  0  0  0  0  0  0  0  0
 15 16  1  0  0  0
 16  2  1  0  0  0
  2  3  1  0  0  0
  2 11  2  0  0  0
  3  4  2  0  0  0
  4  5  1  0  0  0
  4  9  1  0  0  0
  5  6  2  0  0  0
  6  7  1  0  0  0
  7  8  2  0  0  0
  8  1  1  0  0  0
  8  9  1  0  0  0
  1 17  1  0  0  0
 17 18  1  0  0  0
 17 26  2  0  0  0
 18 19  2  0  0  0
 19 20  1  0  0  0
 20 21  1  0  0  0
 20 25  2  0  0  0
 21 27  1  0  0  0
 21 22  2  0  0  0
 27 28  1  0  0  0
 27 29  2  0  0  0
 28 30  1  0  0  0
 28 31  1  0  0  0
 22 23  1  0  0  0
 23 24  2  0  0  0
 24 25  1  0  0  0
 25 26  1  0  0  0
  9 10  2  0  0  0
 10 11  1  0  0  0
 11 12  1  0  0  0
 12 13  1  0  0  0
 12 14  2  0  0  0
M  END
> <minimizedAffinity>
-8.52933

$$$$
