CHEMBL4225895


 46 49  0  0  0  0  0  0  0  0999 V2000
  -25.0838   -1.1221  -12.5354 C   0  0  0  0  0  0  0  0  0  0  0  0
  -24.9800   -1.1363  -13.9300 C   0  0  0  0  0  0  0  0  0  0  0  0
  -23.8569   -0.5915  -14.5652 C   0  0  0  0  0  0  0  0  0  0  0  0
  -22.8139   -0.0439  -13.8181 C   0  0  0  0  0  0  0  0  0  0  0  0
  -22.9037   -0.0412  -12.4224 C   0  0  0  0  0  0  0  0  0  0  0  0
  -24.0465   -0.5488  -11.7850 C   0  0  0  0  0  0  0  0  0  0  0  0
  -26.2736   -1.6844  -11.8251 C   0  0  0  0  0  0  0  0  0  0  0  0
  -27.2217   -2.1221  -12.4695 O   0  0  0  0  0  0  0  0  0  0  0  0
  -27.4561   -1.6854   -9.6615 C   0  0  0  0  0  0  0  0  0  0  0  0
  -26.2915   -1.6337  -10.3284 C   0  0  0  0  0  0  0  0  0  0  0  0
  -27.6729   -1.5334   -8.2970 N   0  0  0  0  0  0  0  0  0  0  0  0
  -28.1142   -0.6351   -8.0548 H   0  0  0  0  0  0  0  0  0  0  0  0
  -28.9148   -6.3265   -7.8298 C   0  0  0  0  0  0  0  0  0  0  0  0
  -28.9421   -4.9301   -7.2832 C   0  0  0  0  0  0  0  0  0  0  0  0
  -29.6104   -4.6370   -6.0962 C   0  0  0  0  0  0  0  0  0  0  0  0
  -29.5992   -3.3379   -5.5959 C   0  0  0  0  0  0  0  0  0  0  0  0
  -28.9166   -2.3145   -6.2799 C   0  0  0  0  0  0  0  0  0  0  0  0
  -28.3116   -2.5679   -7.5341 C   0  0  0  0  0  0  0  0  0  0  0  0
  -28.2929   -3.9011   -7.9823 C   0  0  0  0  0  0  0  0  0  0  0  0
  -28.9191   -0.9519   -5.6978 C   0  0  0  0  0  0  0  0  0  0  0  0
  -29.9493   -0.3501   -5.4481 O   0  0  0  0  0  0  0  0  0  0  0  0
  -27.6866   -0.4415   -5.4797 O   0  0  0  0  0  0  0  0  0  0  0  0
  -26.9532   -0.9387   -5.8891 H   0  0  0  0  0  0  0  0  0  0  0  0
  -21.6135    0.3822  -14.4163 N   0  0  0  0  0  0  0  0  0  0  0  0
  -20.9467   -0.3441  -14.6535 H   0  0  0  0  0  0  0  0  0  0  0  0
  -21.1928    1.6605  -14.7383 C   0  0  0  0  0  0  0  0  0  0  0  0
  -21.7525    3.0782  -14.0589 S   0  0  0  0  0  0  0  0  0  0  0  0
  -20.1004    1.6924  -15.5854 N   0  0  0  0  0  0  0  0  0  0  0  0
  -20.2938    1.6511  -16.5806 H   0  0  0  0  0  0  0  0  0  0  0  0
  -18.7565    1.6852  -15.1579 C   0  0  0  0  0  0  0  0  0  0  0  0
  -17.7358    2.1199  -16.0138 C   0  0  0  0  0  0  0  0  0  0  0  0
  -16.3994    1.9376  -15.6801 C   0  0  0  0  0  0  0  0  0  0  0  0
  -16.0826    1.3454  -14.4594 C   0  0  0  0  0  0  0  0  0  0  0  0
  -17.0925    1.0118  -13.5465 C   0  0  0  0  0  0  0  0  0  0  0  0
  -18.4366    1.2141  -13.8856 C   0  0  0  0  0  0  0  0  0  0  0  0
  -14.3926    0.8581  -14.1608 S   0  0  0  0  0  0  0  0  0  0  0  0
  -13.5462    1.6469  -15.0327 O   0  0  0  0  0  0  0  0  0  0  0  0
  -14.1993    0.8835  -12.7251 O   0  0  0  0  0  0  0  0  0  0  0  0
  -14.3350   -0.7573  -14.6228 N   0  0  0  0  0  0  0  0  0  0  0  0
  -13.4744   -0.9451  -15.1321 H   0  0  0  0  0  0  0  0  0  0  0  0
  -14.4956   -1.6937  -13.5846 C   0  0  0  0  0  0  0  0  0  0  0  0
  -15.7310   -1.9786  -13.0344 C   0  0  0  0  0  0  0  0  0  0  0  0
  -15.7803   -2.9252  -12.0154 C   0  0  0  0  0  0  0  0  0  0  0  0
  -14.5971   -3.5126  -11.5760 C   0  0  0  0  0  0  0  0  0  0  0  0
  -13.4089   -3.1269  -12.1797 C   0  0  0  0  0  0  0  0  0  0  0  0
  -13.3310   -2.2282  -13.1858 N   0  0  0  0  0  0  0  0  0  0  0  0
 13 14  1  0  0  0
 14 15  1  0  0  0
 14 19  2  0  0  0
 15 16  2  0  0  0
 16 17  1  0  0  0
 17 20  1  0  0  0
 17 18  2  0  0  0
 20 21  2  0  0  0
 20 22  1  0  0  0
 22 23  1  0  0  0
 18 11  1  0  0  0
 18 19  1  0  0  0
 11  9  1  0  0  0
 11 12  1  0  0  0
  9 10  2  0  0  0
 10  7  1  0  0  0
  7  8  2  0  0  0
  7  1  1  0  0  0
  1  2  1  0  0  0
  1  6  2  0  0  0
  2  3  2  0  0  0
  3  4  1  0  0  0
  4 24  1  0  0  0
  4  5  2  0  0  0
 24 26  1  0  0  0
 24 25  1  0  0  0
 26 27  2  0  0  0
 26 28  1  0  0  0
 28 30  1  0  0  0
 28 29  1  0  0  0
 30 31  1  0  0  0
 30 35  2  0  0  0
 31 32  2  0  0  0
 32 33  1  0  0  0
 33 36  1  0  0  0
 33 34  2  0  0  0
 36 37  2  0  0  0
 36 38  2  0  0  0
 36 39  1  0  0  0
 39 41  1  0  0  0
 39 40  1  0  0  0
 41 42  1  0  0  0
 41 46  2  0  0  0
 42 43  2  0  0  0
 43 44  1  0  0  0
 44 45  2  0  0  0
 45 46  1  0  0  0
 34 35  1  0  0  0
  5  6  1  0  0  0
M  END
> <minimizedAffinity>
-10.38309

$$$$
