CHEMBL2006580


 20 22  0  0  0  0  0  0  0  0999 V2000
  -28.3460   -3.5342   -5.2407 N   0  0  0  0  0  0  0  0  0  0  0  0
  -27.5441   -3.6675   -4.6368 H   0  0  0  0  0  0  0  0  0  0  0  0
  -29.3939   -4.4432   -5.0111 C   0  0  0  0  0  0  0  0  0  0  0  0
  -30.1062   -4.3366   -3.8573 N   0  0  0  0  0  0  0  0  0  0  0  0
  -31.1086   -5.1851   -3.6165 C   0  0  0  0  0  0  0  0  0  0  0  0
  -31.5167   -6.1859   -4.3932 N   0  0  0  0  0  0  0  0  0  0  0  0
  -30.8092   -6.2737   -5.5301 C   0  0  0  0  0  0  0  0  0  0  0  0
  -31.1698   -7.4972   -6.6609 S   0  0  0  0  0  0  0  0  0  0  0  0
  -29.9400   -6.9634   -7.7145 C   0  0  0  0  0  0  0  0  0  0  0  0
  -29.2718   -5.8688   -7.2124 C   0  0  0  0  0  0  0  0  0  0  0  0
  -27.9852   -5.0975   -8.0442 Cl  0  0  0  0  0  0  0  0  0  0  0  0
  -29.7590   -5.4549   -5.9252 C   0  0  0  0  0  0  0  0  0  0  0  0
  -28.8500    1.7557   -6.9211 O   0  0  0  0  0  0  0  0  0  0  0  0
  -28.7397    0.4719   -6.4768 C   0  0  0  0  0  0  0  0  0  0  0  0
  -29.3170    0.0737   -5.2777 C   0  0  0  0  0  0  0  0  0  0  0  0
  -29.1919   -1.2545   -4.8682 C   0  0  0  0  0  0  0  0  0  0  0  0
  -28.4928   -2.1902   -5.6450 C   0  0  0  0  0  0  0  0  0  0  0  0
  -27.8980   -1.7590   -6.8364 C   0  0  0  0  0  0  0  0  0  0  0  0
  -28.0320   -0.4328   -7.2582 C   0  0  0  0  0  0  0  0  0  0  0  0
  -29.3954    2.2528   -6.2889 H   0  0  0  0  0  0  0  0  0  0  0  0
 13 14  1  0  0  0
 13 20  1  0  0  0
 14 15  1  0  0  0
 14 19  2  0  0  0
 15 16  2  0  0  0
 16 17  1  0  0  0
 17  1  1  0  0  0
 17 18  2  0  0  0
  1  3  1  0  0  0
  1  2  1  0  0  0
  3  4  1  0  0  0
  3 12  2  0  0  0
  4  5  2  0  0  0
  5  6  1  0  0  0
  6  7  2  0  0  0
  7  8  1  0  0  0
  7 12  1  0  0  0
  8  9  1  0  0  0
  9 10  2  0  0  0
 10 11  1  0  0  0
 10 12  1  0  0  0
 18 19  1  0  0  0
M  END
> <minimizedAffinity>
-7.18565

$$$$
