CHEMBL3943475


 43 46  0  0  0  0  0  0  0  0999 V2000
  -27.9479   -2.5481   -9.4340 N   0  0  0  0  0  0  0  0  0  0  0  0
  -26.8240   -1.9866  -10.0249 C   0  0  0  0  0  0  0  0  0  0  0  0
  -26.0573   -1.2005   -9.4676 O   0  0  0  0  0  0  0  0  0  0  0  0
  -26.6589   -2.3591  -11.3491 N   0  0  0  0  0  0  0  0  0  0  0  0
  -28.5560   -3.1065  -10.0156 H   0  0  0  0  0  0  0  0  0  0  0  0
  -27.5203   -2.4678  -11.8657 H   0  0  0  0  0  0  0  0  0  0  0  0
  -25.5460   -1.8709  -12.0843 C   0  0  0  0  0  0  0  0  0  0  0  0
  -24.3119   -1.7604  -11.4430 C   0  0  0  0  0  0  0  0  0  0  0  0
  -23.1718   -1.3643  -12.1587 C   0  0  0  0  0  0  0  0  0  0  0  0
  -23.2560   -1.0826  -13.5288 C   0  0  0  0  0  0  0  0  0  0  0  0
  -24.5081   -1.1287  -14.1406 C   0  0  0  0  0  0  0  0  0  0  0  0
  -24.6359   -0.7948  -15.4373 F   0  0  0  0  0  0  0  0  0  0  0  0
  -25.6453   -1.5257  -13.4364 C   0  0  0  0  0  0  0  0  0  0  0  0
  -22.1761   -0.6992  -14.3024 O   0  0  0  0  0  0  0  0  0  0  0  0
  -21.8045    0.6311  -14.3451 C   0  0  0  0  0  0  0  0  0  0  0  0
  -22.5600    1.6559  -13.7896 C   0  0  0  0  0  0  0  0  0  0  0  0
  -22.1095    2.9470  -13.9502 C   0  0  0  0  0  0  0  0  0  0  0  0
  -20.9510    3.2559  -14.5670 N   0  0  0  0  0  0  0  0  0  0  0  0
  -20.1765    2.2633  -15.0336 C   0  0  0  0  0  0  0  0  0  0  0  0
  -20.5697    0.9332  -14.9378 C   0  0  0  0  0  0  0  0  0  0  0  0
  -18.9348    2.5751  -15.6213 N   0  0  0  0  0  0  0  0  0  0  0  0
  -17.7154    2.2202  -15.0796 C   0  0  0  0  0  0  0  0  0  0  0  0
  -17.5122    1.6603  -14.0099 O   0  0  0  0  0  0  0  0  0  0  0  0
  -18.9526    3.0911  -16.4832 H   0  0  0  0  0  0  0  0  0  0  0  0
  -16.5000    2.5718  -15.8768 C   0  0  0  0  0  0  0  0  0  0  0  0
  -15.6299    1.4653  -16.4248 C   0  0  0  0  0  0  0  0  0  0  0  0
  -15.0625    2.4527  -15.4468 C   0  0  0  0  0  0  0  0  0  0  0  0
  -29.1411   -3.1400   -5.9401 C   0  0  0  0  0  0  0  0  0  0  0  0
  -28.8179   -3.3531   -7.2749 C   0  0  0  0  0  0  0  0  0  0  0  0
  -28.3557   -2.3192   -8.0919 C   0  0  0  0  0  0  0  0  0  0  0  0
  -28.3137   -1.0229   -7.5607 C   0  0  0  0  0  0  0  0  0  0  0  0
  -28.6728   -0.7851   -6.2132 C   0  0  0  0  0  0  0  0  0  0  0  0
  -29.0466   -1.8678   -5.3970 C   0  0  0  0  0  0  0  0  0  0  0  0
  -28.7093    0.6093   -5.6351 C   0  0  0  0  0  0  0  0  0  0  0  0
  -27.8495    0.7864   -4.5934 F   0  0  0  0  0  0  0  0  0  0  0  0
  -28.3716    1.5556   -6.5561 F   0  0  0  0  0  0  0  0  0  0  0  0
  -29.9388    0.9602   -5.1704 F   0  0  0  0  0  0  0  0  0  0  0  0
  -29.5954   -4.2326   -5.1556 N   0  0  0  0  0  0  0  0  0  0  0  0
  -30.4988   -4.6310   -5.4210 H   0  0  0  0  0  0  0  0  0  0  0  0
  -29.3989   -6.3941   -3.4842 C   0  0  0  0  0  0  0  0  0  0  0  0
  -28.5068   -5.4331   -4.6989 S   0  0  0  0  0  0  0  0  0  0  0  0
  -27.4427   -4.7469   -4.0047 O   0  0  0  0  0  0  0  0  0  0  0  0
  -28.2398   -6.2758   -5.8455 O   0  0  0  0  0  0  0  0  0  0  0  0
 40 41  1  0  0  0
 41 42  2  0  0  0
 41 43  2  0  0  0
 41 38  1  0  0  0
 38 28  1  0  0  0
 38 39  1  0  0  0
 28 29  1  0  0  0
 28 33  2  0  0  0
 29 30  2  0  0  0
 30  1  1  0  0  0
 30 31  1  0  0  0
  1  2  1  0  0  0
  1  5  1  0  0  0
  2  3  2  0  0  0
  2  4  1  0  0  0
  4  7  1  0  0  0
  4  6  1  0  0  0
  7  8  1  0  0  0
  7 13  2  0  0  0
  8  9  2  0  0  0
  9 10  1  0  0  0
 10 14  1  0  0  0
 10 11  2  0  0  0
 14 15  1  0  0  0
 15 16  1  0  0  0
 15 20  2  0  0  0
 16 17  2  0  0  0
 17 18  1  0  0  0
 18 19  2  0  0  0
 19 21  1  0  0  0
 19 20  1  0  0  0
 21 22  1  0  0  0
 21 24  1  0  0  0
 22 23  2  0  0  0
 22 25  1  0  0  0
 25 26  1  0  0  0
 25 27  1  0  0  0
 26 27  1  0  0  0
 11 12  1  0  0  0
 11 13  1  0  0  0
 31 32  2  0  0  0
 32 34  1  0  0  0
 32 33  1  0  0  0
 34 35  1  0  0  0
 34 36  1  0  0  0
 34 37  1  0  0  0
M  END
> <minimizedAffinity>
-12.30636

$$$$
