CHEMBL435702


 31 35  0  0  0  0  0  0  0  0999 V2000
  -25.4482    9.6506  -16.9004 O   0  0  0  0  0  0  0  0  0  0  0  0
  -25.7997   10.4752  -16.0580 C   0  0  0  0  0  0  0  0  0  0  0  0
  -27.2292   10.5335  -15.6606 C   0  0  0  0  0  0  0  0  0  0  0  0
  -27.6649   11.4397  -14.7661 C   0  0  0  0  0  0  0  0  0  0  0  0
  -26.6980   12.3509  -14.1747 C   0  0  0  0  0  0  0  0  0  0  0  0
  -25.4107   12.3020  -14.5040 C   0  0  0  0  0  0  0  0  0  0  0  0
  -24.9490   11.3877  -15.4398 N   0  0  0  0  0  0  0  0  0  0  0  0
  -29.0738   11.4504  -14.3683 C   0  0  0  0  0  0  0  0  0  0  0  0
  -30.0426   12.4589  -14.8410 C   0  0  0  0  0  0  0  0  0  0  0  0
  -31.3611   12.2967  -14.5595 C   0  0  0  0  0  0  0  0  0  0  0  0
  -31.7271   11.2848  -13.6524 N   0  0  0  0  0  0  0  0  0  0  0  0
  -32.8962   11.0970  -12.8965 C   0  0  0  0  0  0  0  0  0  0  0  0
  -32.3398   11.5869  -11.7081 C   0  0  0  0  0  0  0  0  0  0  0  0
  -31.0566   11.0835  -11.5951 N   0  0  0  0  0  0  0  0  0  0  0  0
  -30.7335   10.7536  -12.8344 C   0  0  0  0  0  0  0  0  0  0  0  0
  -29.4609   10.5615  -13.4264 C   0  0  0  0  0  0  0  0  0  0  0  0
  -33.7015    9.8183  -12.8583 C   0  0  0  0  0  0  0  0  0  0  0  0
  -34.5166    9.5228  -13.9679 C   0  0  0  0  0  0  0  0  0  0  0  0
  -35.4986    8.5287  -13.9189 C   0  0  0  0  0  0  0  0  0  0  0  0
  -35.6641    7.7775  -12.7666 C   0  0  0  0  0  0  0  0  0  0  0  0
  -34.8257    8.0164  -11.6677 C   0  0  0  0  0  0  0  0  0  0  0  0
  -33.8512    9.0337  -11.7165 C   0  0  0  0  0  0  0  0  0  0  0  0
  -23.5392   11.4264  -15.8291 C   0  0  0  0  0  0  0  0  0  0  0  0
  -23.2010   12.6269  -16.7195 C   0  0  0  0  0  0  0  0  0  0  0  0
  -23.1884   12.3320  -18.2277 C   0  0  0  0  0  0  0  0  0  0  0  0
  -21.8656   12.4151  -18.8782 N   0  0  0  0  0  0  0  0  0  0  0  0
  -20.9470   11.3702  -18.3978 C   0  0  0  0  0  0  0  0  0  0  0  0
  -19.5737   11.4846  -19.0631 C   0  0  0  0  0  0  0  0  0  0  0  0
  -19.6866   11.4318  -20.5813 C   0  0  0  0  0  0  0  0  0  0  0  0
  -20.6892   12.4677  -21.0684 C   0  0  0  0  0  0  0  0  0  0  0  0
  -22.0277   12.3302  -20.3419 C   0  0  0  0  0  0  0  0  0  0  0  0
  1  2  2  0  0  0
  2  3  1  0  0  0
  2  7  1  0  0  0
  3  4  2  0  0  0
  4  8  1  0  0  0
  4  5  1  0  0  0
  8  9  1  0  0  0
  8 16  2  0  0  0
  9 10  2  0  0  0
 10 11  1  0  0  0
 11 12  1  0  0  0
 11 15  1  0  0  0
 12 17  1  0  0  0
 12 13  2  0  0  0
 17 18  1  0  0  0
 17 22  2  0  0  0
 18 19  2  0  0  0
 19 20  1  0  0  0
 20 21  2  0  0  0
 21 22  1  0  0  0
 13 14  1  0  0  0
 14 15  2  0  0  0
 15 16  1  0  0  0
  5  6  2  0  0  0
  6  7  1  0  0  0
  7 23  1  0  0  0
 23 24  1  0  0  0
 24 25  1  0  0  0
 25 26  1  0  0  0
 26 27  1  0  0  0
 26 31  1  0  0  0
 27 28  1  0  0  0
 28 29  1  0  0  0
 29 30  1  0  0  0
 30 31  1  0  0  0
M  END
> <minimizedAffinity>
-7.08327

$$$$
