CHEMBL204548


 28 31  0  0  0  0  0  0  0  0999 V2000
  -26.4516   -1.7678  -12.3502 C   0  0  0  0  0  0  0  0  0  0  0  0
  -27.7002   -2.0595  -12.9338 C   0  0  0  0  0  0  0  0  0  0  0  0
  -27.8742   -1.9896  -14.3146 C   0  0  0  0  0  0  0  0  0  0  0  0
  -26.8150   -1.5998  -15.1243 C   0  0  0  0  0  0  0  0  0  0  0  0
  -25.5746   -1.3035  -14.5572 C   0  0  0  0  0  0  0  0  0  0  0  0
  -25.3612   -1.3921  -13.1652 C   0  0  0  0  0  0  0  0  0  0  0  0
  -25.2996   -1.4851  -10.3394 O   0  0  0  0  0  0  0  0  0  0  0  0
  -26.3740   -1.7615  -10.8605 C   0  0  0  0  0  0  0  0  0  0  0  0
  -27.5596   -2.0410  -10.2017 N   0  0  0  0  0  0  0  0  0  0  0  0
  -28.3706   -2.2369  -10.7781 H   0  0  0  0  0  0  0  0  0  0  0  0
  -27.7767   -2.0669   -8.8063 C   0  0  0  0  0  0  0  0  0  0  0  0
  -27.6112   -0.9558   -7.9732 C   0  0  0  0  0  0  0  0  0  0  0  0
  -27.8528   -1.0532   -6.5976 C   0  0  0  0  0  0  0  0  0  0  0  0
  -28.2709   -2.2600   -6.0374 C   0  0  0  0  0  0  0  0  0  0  0  0
  -28.5754   -2.2988   -4.3383 Cl  0  0  0  0  0  0  0  0  0  0  0  0
  -28.4327   -3.3783   -6.8587 C   0  0  0  0  0  0  0  0  0  0  0  0
  -28.9451   -4.9103   -6.2426 Cl  0  0  0  0  0  0  0  0  0  0  0  0
  -28.1817   -3.2800   -8.2359 C   0  0  0  0  0  0  0  0  0  0  0  0
  -23.9683   -1.1001  -12.6461 C   0  0  0  0  0  0  0  0  0  0  0  0
  -23.5000    0.2348  -13.0263 N   0  0  0  0  0  0  0  0  0  0  0  0
  -24.0322    1.4074  -12.5406 C   0  0  0  0  0  0  0  0  0  0  0  0
  -23.2877    2.4550  -13.0317 C   0  0  0  0  0  0  0  0  0  0  0  0
  -22.2499    1.9092  -13.8337 C   0  0  0  0  0  0  0  0  0  0  0  0
  -21.1896    2.4664  -14.5611 C   0  0  0  0  0  0  0  0  0  0  0  0
  -20.3237    1.6765  -15.2406 N   0  0  0  0  0  0  0  0  0  0  0  0
  -20.4923    0.3396  -15.1890 C   0  0  0  0  0  0  0  0  0  0  0  0
  -21.4976   -0.3070  -14.4892 C   0  0  0  0  0  0  0  0  0  0  0  0
  -22.3971    0.5181  -13.8104 C   0  0  0  0  0  0  0  0  0  0  0  0
  7  8  2  0  0  0
  8  9  1  0  0  0
  8  1  1  0  0  0
  9 11  1  0  0  0
  9 10  1  0  0  0
 11 12  1  0  0  0
 11 18  2  0  0  0
 12 13  2  0  0  0
 13 14  1  0  0  0
 14 15  1  0  0  0
 14 16  2  0  0  0
 16 17  1  0  0  0
 16 18  1  0  0  0
  1  2  1  0  0  0
  1  6  2  0  0  0
  2  3  2  0  0  0
  3  4  1  0  0  0
  4  5  2  0  0  0
  5  6  1  0  0  0
  6 19  1  0  0  0
 19 20  1  0  0  0
 20 21  1  0  0  0
 20 28  1  0  0  0
 21 22  2  0  0  0
 22 23  1  0  0  0
 23 24  1  0  0  0
 23 28  2  0  0  0
 24 25  2  0  0  0
 25 26  1  0  0  0
 26 27  2  0  0  0
 27 28  1  0  0  0
M  END
> <minimizedAffinity>
-8.45859

$$$$
