CHEMBL100775


 14 15  0  0  0  0  0  0  0  0999 V2000
  -27.9437   -2.2079  -10.1812 N   0  0  0  0  0  0  0  0  0  0  0  0
  -28.6099   -2.8365  -10.6107 H   0  0  0  0  0  0  0  0  0  0  0  0
  -24.5125   -1.2163  -13.9438 C   0  0  0  0  0  0  0  0  0  0  0  0
  -25.2330   -1.4033  -12.6646 C   0  0  0  0  0  0  0  0  0  0  0  0
  -24.7375   -1.3542  -11.3822 C   0  0  0  0  0  0  0  0  0  0  0  0
  -25.6515   -1.5971  -10.3881 N   0  0  0  0  0  0  0  0  0  0  0  0
  -26.8442   -1.8539  -10.8848 C   0  0  0  0  0  0  0  0  0  0  0  0
  -26.9146   -1.7345  -12.6103 S   0  0  0  0  0  0  0  0  0  0  0  0
  -28.0172   -2.3437   -8.7931 C   0  0  0  0  0  0  0  0  0  0  0  0
  -28.5063   -3.4809   -8.1521 C   0  0  0  0  0  0  0  0  0  0  0  0
  -28.6441   -3.4969   -6.7668 C   0  0  0  0  0  0  0  0  0  0  0  0
  -28.2560   -2.3858   -6.0400 C   0  0  0  0  0  0  0  0  0  0  0  0
  -27.7275   -1.3135   -6.7360 C   0  0  0  0  0  0  0  0  0  0  0  0
  -27.5986   -1.2709   -8.0835 N   0  0  0  0  0  0  0  0  0  0  0  0
  3  4  1  0  0  0
  4  5  2  0  0  0
  4  8  1  0  0  0
  5  6  1  0  0  0
  6  7  2  0  0  0
  7  1  1  0  0  0
  7  8  1  0  0  0
  1  9  1  0  0  0
  1  2  1  0  0  0
  9 10  1  0  0  0
  9 14  2  0  0  0
 10 11  2  0  0  0
 11 12  1  0  0  0
 12 13  2  0  0  0
 13 14  1  0  0  0
M  END
> <minimizedAffinity>
-5.91016

$$$$
