CHEMBL3936025


 35 39  0  0  0  0  0  0  0  0999 V2000
  -23.7883   11.3114  -18.2751 C   0  0  0  0  0  0  0  0  0  0  0  0
  -24.8497   11.6134  -17.4190 C   0  0  0  0  0  0  0  0  0  0  0  0
  -24.6744   11.6761  -16.0182 C   0  0  0  0  0  0  0  0  0  0  0  0
  -25.6765   12.0421  -15.1052 C   0  0  0  0  0  0  0  0  0  0  0  0
  -25.4362   12.1273  -13.7834 N   0  0  0  0  0  0  0  0  0  0  0  0
  -24.2025   11.8273  -13.3767 C   0  0  0  0  0  0  0  0  0  0  0  0
  -23.1786   11.4627  -14.1571 N   0  0  0  0  0  0  0  0  0  0  0  0
  -23.4168   11.3991  -15.4709 C   0  0  0  0  0  0  0  0  0  0  0  0
  -22.3808   11.0508  -16.3269 C   0  0  0  0  0  0  0  0  0  0  0  0
  -22.5461   10.9755  -17.7167 C   0  0  0  0  0  0  0  0  0  0  0  0
  -23.7528   12.5996  -20.2690 C   0  0  0  0  0  0  0  0  0  0  0  0
  -23.9311   11.3329  -19.6357 O   0  0  0  0  0  0  0  0  0  0  0  0
  -26.9824   12.3505  -15.5868 N   0  0  0  0  0  0  0  0  0  0  0  0
  -26.9972   12.2773  -16.5980 H   0  0  0  0  0  0  0  0  0  0  0  0
  -28.1844   11.9241  -14.9818 C   0  0  0  0  0  0  0  0  0  0  0  0
  -29.1252   11.1811  -15.7073 C   0  0  0  0  0  0  0  0  0  0  0  0
  -30.3387   10.7985  -15.1340 C   0  0  0  0  0  0  0  0  0  0  0  0
  -30.6274   11.1508  -13.8165 C   0  0  0  0  0  0  0  0  0  0  0  0
  -32.1648   10.6882  -13.1806 Cl  0  0  0  0  0  0  0  0  0  0  0  0
  -29.6838   11.8622  -13.0678 C   0  0  0  0  0  0  0  0  0  0  0  0
  -29.9693   12.3257  -11.4264 Cl  0  0  0  0  0  0  0  0  0  0  0  0
  -28.4628   12.2363  -13.6460 C   0  0  0  0  0  0  0  0  0  0  0  0
  -21.4012   10.5994  -18.3797 O   0  0  0  0  0  0  0  0  0  0  0  0
  -20.5563   11.6614  -18.8189 C   0  0  0  0  0  0  0  0  0  0  0  0
  -19.8740   11.2607  -20.0745 C   0  0  0  0  0  0  0  0  0  0  0  0
  -18.6472   10.8206  -20.2390 N   0  0  0  0  0  0  0  0  0  0  0  0
  -18.4293   11.0255  -21.5772 C   0  0  0  0  0  0  0  0  0  0  0  0
  -19.5013   11.4850  -22.2323 N   0  0  0  0  0  0  0  0  0  0  0  0
  -20.4704   11.6316  -21.2424 O   0  0  0  0  0  0  0  0  0  0  0  0
  -17.1731   10.8812  -22.0415 N   0  0  0  0  0  0  0  0  0  0  0  0
  -16.6136    9.5599  -22.3288 C   0  0  0  0  0  0  0  0  0  0  0  0
  -15.1248    9.5391  -21.9528 C   0  0  0  0  0  0  0  0  0  0  0  0
  -14.4001   10.6041  -22.5935 O   0  0  0  0  0  0  0  0  0  0  0  0
  -14.9514   11.8793  -22.2205 C   0  0  0  0  0  0  0  0  0  0  0  0
  -16.4315   11.9977  -22.6243 C   0  0  0  0  0  0  0  0  0  0  0  0
 11 12  1  0  0  0
 12  1  1  0  0  0
  1  2  1  0  0  0
  1 10  2  0  0  0
  2  3  2  0  0  0
  3  4  1  0  0  0
  3  8  1  0  0  0
  4 13  1  0  0  0
  4  5  2  0  0  0
 13 15  1  0  0  0
 13 14  1  0  0  0
 15 16  1  0  0  0
 15 22  2  0  0  0
 16 17  2  0  0  0
 17 18  1  0  0  0
 18 19  1  0  0  0
 18 20  2  0  0  0
 20 21  1  0  0  0
 20 22  1  0  0  0
  5  6  1  0  0  0
  6  7  2  0  0  0
  7  8  1  0  0  0
  8  9  2  0  0  0
  9 10  1  0  0  0
 10 23  1  0  0  0
 23 24  1  0  0  0
 24 25  1  0  0  0
 25 26  2  0  0  0
 25 29  1  0  0  0
 26 27  1  0  0  0
 27 30  1  0  0  0
 27 28  2  0  0  0
 30 31  1  0  0  0
 30 35  1  0  0  0
 31 32  1  0  0  0
 32 33  1  0  0  0
 33 34  1  0  0  0
 34 35  1  0  0  0
 28 29  1  0  0  0
M  END
> <minimizedAffinity>
-5.35712

$$$$
