CHEMBL3904329


 32 35  0  0  0  0  0  0  0  0999 V2000
  -28.5963   -7.9317   -5.7378 N   0  0  0  0  0  0  0  0  0  0  0  0
  -28.3217   -6.5170   -5.5591 C   0  0  0  0  0  0  0  0  0  0  0  0
  -27.5542   -6.2113   -4.4468 C   0  0  0  0  0  0  0  0  0  0  0  0
  -27.6778   -4.9779   -3.8339 C   0  0  0  0  0  0  0  0  0  0  0  0
  -28.4116   -3.9656   -4.4015 C   0  0  0  0  0  0  0  0  0  0  0  0
  -28.5636   -2.9068   -3.6031 N   0  0  0  0  0  0  0  0  0  0  0  0
  -29.0843   -1.8066   -4.1550 C   0  0  0  0  0  0  0  0  0  0  0  0
  -29.3794   -1.7406   -5.5010 C   0  0  0  0  0  0  0  0  0  0  0  0
  -29.3557   -2.8701   -6.2941 N   0  0  0  0  0  0  0  0  0  0  0  0
  -28.9125   -4.0677   -5.7223 C   0  0  0  0  0  0  0  0  0  0  0  0
  -28.9118   -5.4242   -6.2671 C   0  0  0  0  0  0  0  0  0  0  0  0
  -29.5726   -0.3989   -6.0470 C   0  0  0  0  0  0  0  0  0  0  0  0
  -28.5902    0.5579   -6.4286 C   0  0  0  0  0  0  0  0  0  0  0  0
  -29.1093    1.7712   -6.6558 N   0  0  0  0  0  0  0  0  0  0  0  0
  -30.4189    1.5979   -6.4110 N   0  0  0  0  0  0  0  0  0  0  0  0
  -31.3855    2.5683   -6.8682 C   0  0  0  0  0  0  0  0  0  0  0  0
  -30.7015    0.3776   -5.8601 C   0  0  0  0  0  0  0  0  0  0  0  0
  -31.0017   -9.3620   -8.2516 C   0  0  0  0  0  0  0  0  0  0  0  0
  -30.1385   -9.7617   -9.2707 C   0  0  0  0  0  0  0  0  0  0  0  0
  -28.7690   -9.5536   -9.1329 C   0  0  0  0  0  0  0  0  0  0  0  0
  -28.2580   -9.0002   -7.9508 C   0  0  0  0  0  0  0  0  0  0  0  0
  -29.0877   -8.6005   -6.8897 C   0  0  0  0  0  0  0  0  0  0  0  0
  -30.4740   -8.7848   -7.0752 C   0  0  0  0  0  0  0  0  0  0  0  0
  -33.1186   -8.8217   -7.2795 C   0  0  0  0  0  0  0  0  0  0  0  0
  -32.3704   -9.4685   -8.3102 O   0  0  0  0  0  0  0  0  0  0  0  0
  -27.8330   -9.8717  -10.0821 O   0  0  0  0  0  0  0  0  0  0  0  0
  -27.7883  -11.2403  -10.4761 C   0  0  0  0  0  0  0  0  0  0  0  0
  -29.0229   -8.4849   -4.3911 C   0  0  0  0  0  0  0  0  0  0  0  0
  -28.6930   -9.9670   -4.0783 C   0  0  0  0  0  0  0  0  0  0  0  0
  -27.3306  -10.2358   -3.4531 C   0  0  0  0  0  0  0  0  0  0  0  0
  -29.6896  -10.4670   -3.1572 O   0  0  0  0  0  0  0  0  0  0  0  0
  -29.3837  -10.3056   -2.2465 H   0  0  0  0  0  0  0  0  0  0  0  0
 24 25  1  0  0  0
 25 18  1  0  0  0
 18 19  1  0  0  0
 18 23  2  0  0  0
 19 20  2  0  0  0
 20 26  1  0  0  0
 20 21  1  0  0  0
 26 27  1  0  0  0
 21 22  2  0  0  0
 22  1  1  0  0  0
 22 23  1  0  0  0
  1 28  1  0  0  0
  1  2  1  0  0  0
 28 29  1  0  0  0
 29 30  1  0  0  0
 29 31  1  0  0  0
 31 32  1  0  0  0
  2  3  1  0  0  0
  2 11  2  0  0  0
  3  4  2  0  0  0
  4  5  1  0  0  0
  5  6  1  0  0  0
  5 10  2  0  0  0
  6  7  2  0  0  0
  7  8  1  0  0  0
  8 12  1  0  0  0
  8  9  2  0  0  0
 12 13  1  0  0  0
 12 17  2  0  0  0
 13 14  2  0  0  0
 14 15  1  0  0  0
 15 16  1  0  0  0
 15 17  1  0  0  0
  9 10  1  0  0  0
 10 11  1  0  0  0
M  END
> <minimizedAffinity>
-7.73967

$$$$
