CHEMBL4293385


 26 28  0  0  0  0  0  0  0  0999 V2000
  -19.8486    2.3477  -15.2395 C   0  0  0  0  0  0  0  0  0  0  0  0
  -20.0098    0.9627  -15.1720 C   0  0  0  0  0  0  0  0  0  0  0  0
  -21.1468    0.4138  -14.5788 C   0  0  0  0  0  0  0  0  0  0  0  0
  -22.0913    1.2370  -13.9597 C   0  0  0  0  0  0  0  0  0  0  0  0
  -21.8709    2.6214  -13.9408 C   0  0  0  0  0  0  0  0  0  0  0  0
  -20.7539    3.1758  -14.5761 C   0  0  0  0  0  0  0  0  0  0  0  0
  -23.3457    0.7107  -13.4101 C   0  0  0  0  0  0  0  0  0  0  0  0
  -23.8077   -0.5420  -13.5802 C   0  0  0  0  0  0  0  0  0  0  0  0
  -25.0952   -0.9905  -13.0265 C   0  0  0  0  0  0  0  0  0  0  0  0
  -25.3630   -0.8565  -11.6687 C   0  0  0  0  0  0  0  0  0  0  0  0
  -26.5920   -1.2975  -11.1817 C   0  0  0  0  0  0  0  0  0  0  0  0
  -27.5114   -1.8586  -12.0600 C   0  0  0  0  0  0  0  0  0  0  0  0
  -27.1637   -1.9552  -13.3944 C   0  0  0  0  0  0  0  0  0  0  0  0
  -25.9841   -1.5344  -13.8904 N   0  0  0  0  0  0  0  0  0  0  0  0
  -18.8201    2.9718  -15.9110 O   0  0  0  0  0  0  0  0  0  0  0  0
  -15.8006    1.3182  -14.6020 C   0  0  0  0  0  0  0  0  0  0  0  0
  -17.1539    1.5352  -14.8249 C   0  0  0  0  0  0  0  0  0  0  0  0
  -17.5173    2.5893  -15.6584 C   0  0  0  0  0  0  0  0  0  0  0  0
  -16.5295    3.3071  -16.3264 C   0  0  0  0  0  0  0  0  0  0  0  0
  -15.2025    2.9890  -16.0718 C   0  0  0  0  0  0  0  0  0  0  0  0
  -14.8087    2.0279  -15.2081 N   0  0  0  0  0  0  0  0  0  0  0  0
  -15.3735   -2.1352  -13.1205 C   0  0  0  0  0  0  0  0  0  0  0  0
  -15.6723   -1.0250  -13.9829 N   0  0  0  0  0  0  0  0  0  0  0  0
  -15.3900    0.2717  -13.6118 C   0  0  0  0  0  0  0  0  0  0  0  0
  -14.8337    0.5687  -12.5597 O   0  0  0  0  0  0  0  0  0  0  0  0
  -16.0982   -1.1625  -14.8955 H   0  0  0  0  0  0  0  0  0  0  0  0
 22 23  1  0  0  0
 23 24  1  0  0  0
 23 26  1  0  0  0
 24 25  2  0  0  0
 24 16  1  0  0  0
 16 17  1  0  0  0
 16 21  2  0  0  0
 17 18  2  0  0  0
 18 15  1  0  0  0
 18 19  1  0  0  0
 15  1  1  0  0  0
  1  2  1  0  0  0
  1  6  2  0  0  0
  2  3  2  0  0  0
  3  4  1  0  0  0
  4  7  1  0  0  0
  4  5  2  0  0  0
  7  8  2  0  0  0
  8  9  1  0  0  0
  9 10  1  0  0  0
  9 14  2  0  0  0
 10 11  2  0  0  0
 11 12  1  0  0  0
 12 13  2  0  0  0
 13 14  1  0  0  0
  5  6  1  0  0  0
 19 20  2  0  0  0
 20 21  1  0  0  0
M  END
> <minimizedAffinity>
-9.91015

$$$$
