CHEMBL4743088


 33 37  0  0  0  0  0  0  0  0999 V2000
  -28.5107   -7.3798   -8.2816 O   0  0  0  0  0  0  0  0  0  0  0  0
  -29.2042   -8.3432   -8.0283 C   0  0  0  0  0  0  0  0  0  0  0  0
  -30.6595   -8.3357   -7.5299 C   0  0  0  0  0  0  0  0  0  0  0  0
  -31.4607   -7.3436   -7.3118 N   0  0  0  0  0  0  0  0  0  0  0  0
  -31.0379   -9.7342   -7.3744 C   0  0  0  0  0  0  0  0  0  0  0  0
  -32.2430  -10.2763   -6.9686 C   0  0  0  0  0  0  0  0  0  0  0  0
  -32.3186  -11.6651   -6.9163 C   0  0  0  0  0  0  0  0  0  0  0  0
  -33.7867  -12.4166   -6.4239 Cl  0  0  0  0  0  0  0  0  0  0  0  0
  -31.2118  -12.4660   -7.2624 C   0  0  0  0  0  0  0  0  0  0  0  0
  -30.0086  -11.8871   -7.6934 C   0  0  0  0  0  0  0  0  0  0  0  0
  -29.9389  -10.5062   -7.7529 C   0  0  0  0  0  0  0  0  0  0  0  0
  -28.8766   -9.6881   -8.1713 N   0  0  0  0  0  0  0  0  0  0  0  0
  -30.8782   -6.1021   -7.5065 N   0  0  0  0  0  0  0  0  0  0  0  0
  -30.7135   -5.3843   -6.4420 C   0  0  0  0  0  0  0  0  0  0  0  0
  -30.1305   -4.1440   -6.4048 N   0  0  0  0  0  0  0  0  0  0  0  0
  -30.0860   -3.5093   -5.1807 C   0  0  0  0  0  0  0  0  0  0  0  0
  -30.6230   -4.2447   -4.1887 C   0  0  0  0  0  0  0  0  0  0  0  0
  -31.2104   -5.7935   -4.7751 S   0  0  0  0  0  0  0  0  0  0  0  0
  -29.8734   -3.6826   -7.2617 H   0  0  0  0  0  0  0  0  0  0  0  0
  -29.4753   -2.1783   -5.0362 C   0  0  0  0  0  0  0  0  0  0  0  0
  -28.1823   -2.0395   -4.5035 C   0  0  0  0  0  0  0  0  0  0  0  0
  -27.5911   -0.7790   -4.3672 C   0  0  0  0  0  0  0  0  0  0  0  0
  -28.2881    0.3589   -4.7614 C   0  0  0  0  0  0  0  0  0  0  0  0
  -27.5645    1.9098   -4.5880 Cl  0  0  0  0  0  0  0  0  0  0  0  0
  -29.5686    0.2470   -5.2936 C   0  0  0  0  0  0  0  0  0  0  0  0
  -30.1579   -1.0162   -5.4330 C   0  0  0  0  0  0  0  0  0  0  0  0
  -27.7038  -10.1349   -8.8878 C   0  0  0  0  0  0  0  0  0  0  0  0
  -27.7759   -9.9859  -10.3863 C   0  0  0  0  0  0  0  0  0  0  0  0
  -28.8821  -10.4819  -11.0943 C   0  0  0  0  0  0  0  0  0  0  0  0
  -28.9712  -10.3224  -12.4780 C   0  0  0  0  0  0  0  0  0  0  0  0
  -27.9631   -9.6538  -13.1686 C   0  0  0  0  0  0  0  0  0  0  0  0
  -26.8766   -9.1261  -12.4733 C   0  0  0  0  0  0  0  0  0  0  0  0
  -26.7857   -9.2848  -11.0890 C   0  0  0  0  0  0  0  0  0  0  0  0
  1  2  2  0  0  0
  2  3  1  0  0  0
  2 12  1  0  0  0
  3  4  2  0  0  0
  3  5  1  0  0  0
  4 13  1  0  0  0
 13 14  2  0  0  0
 14 15  1  0  0  0
 14 18  1  0  0  0
 15 16  1  0  0  0
 15 19  1  0  0  0
 16 20  1  0  0  0
 16 17  2  0  0  0
 20 21  1  0  0  0
 20 26  2  0  0  0
 21 22  2  0  0  0
 22 23  1  0  0  0
 23 24  1  0  0  0
 23 25  2  0  0  0
 25 26  1  0  0  0
 17 18  1  0  0  0
  5  6  1  0  0  0
  5 11  2  0  0  0
  6  7  2  0  0  0
  7  8  1  0  0  0
  7  9  1  0  0  0
  9 10  2  0  0  0
 10 11  1  0  0  0
 11 12  1  0  0  0
 12 27  1  0  0  0
 27 28  1  0  0  0
 28 29  1  0  0  0
 28 33  2  0  0  0
 29 30  2  0  0  0
 30 31  1  0  0  0
 31 32  2  0  0  0
 32 33  1  0  0  0
M  END
> <minimizedAffinity>
-7.76201

$$$$
