CHEMBL324489


 31 35  0  0  0  0  0  0  0  0999 V2000
  -29.2849   -3.2182   -5.9985 C   0  0  0  0  0  0  0  0  0  0  0  0
  -29.0376   -1.8674   -5.7263 C   0  0  0  0  0  0  0  0  0  0  0  0
  -28.2899   -1.0700   -6.5960 C   0  0  0  0  0  0  0  0  0  0  0  0
  -27.8950   -1.6470   -7.8017 C   0  0  0  0  0  0  0  0  0  0  0  0
  -27.1832   -1.1111   -8.8453 N   0  0  0  0  0  0  0  0  0  0  0  0
  -27.0396   -2.0219   -9.8681 C   0  0  0  0  0  0  0  0  0  0  0  0
  -27.6912   -3.1720   -9.4542 C   0  0  0  0  0  0  0  0  0  0  0  0
  -28.2044   -2.9578   -8.1496 C   0  0  0  0  0  0  0  0  0  0  0  0
  -28.8984   -3.7651   -7.2317 C   0  0  0  0  0  0  0  0  0  0  0  0
  -26.7939   -0.1764   -8.8673 H   0  0  0  0  0  0  0  0  0  0  0  0
  -26.2661   -1.7416  -11.0799 C   0  0  0  0  0  0  0  0  0  0  0  0
  -24.9453   -1.3140  -10.9849 C   0  0  0  0  0  0  0  0  0  0  0  0
  -24.2424   -0.9129  -12.1264 C   0  0  0  0  0  0  0  0  0  0  0  0
  -22.9344   -0.4122  -12.0295 C   0  0  0  0  0  0  0  0  0  0  0  0
  -22.2769    0.0433  -13.1664 C   0  0  0  0  0  0  0  0  0  0  0  0
  -22.9154   -0.0179  -14.3995 C   0  0  0  0  0  0  0  0  0  0  0  0
  -24.2074   -0.5423  -14.4934 C   0  0  0  0  0  0  0  0  0  0  0  0
  -24.8969   -0.9934  -13.3745 C   0  0  0  0  0  0  0  0  0  0  0  0
  -26.1459   -1.4640  -13.5017 N   0  0  0  0  0  0  0  0  0  0  0  0
  -26.7859   -1.8142  -12.3701 C   0  0  0  0  0  0  0  0  0  0  0  0
  -28.0576   -2.2355  -12.6180 O   0  0  0  0  0  0  0  0  0  0  0  0
  -28.0636   -2.1334  -13.5886 H   0  0  0  0  0  0  0  0  0  0  0  0
  -28.4351   -9.3623   -3.7743 C   0  0  0  0  0  0  0  0  0  0  0  0
  -28.5172   -7.9058   -3.6997 N   0  0  0  0  0  0  0  0  0  0  0  0
  -28.0302   -7.3100   -4.9543 C   0  0  0  0  0  0  0  0  0  0  0  0
  -28.0878   -5.7780   -4.9158 C   0  0  0  0  0  0  0  0  0  0  0  0
  -29.4132   -5.2651   -4.5567 N   0  0  0  0  0  0  0  0  0  0  0  0
  -30.0128   -4.1061   -5.0497 C   0  0  0  0  0  0  0  0  0  0  0  0
  -31.1621   -3.7824   -4.7470 O   0  0  0  0  0  0  0  0  0  0  0  0
  -30.0331   -5.9280   -3.4056 C   0  0  0  0  0  0  0  0  0  0  0  0
  -29.9080   -7.4634   -3.4631 C   0  0  0  0  0  0  0  0  0  0  0  0
 23 24  1  0  0  0
 24 25  1  0  0  0
 24 31  1  0  0  0
 25 26  1  0  0  0
 26 27  1  0  0  0
 27 28  1  0  0  0
 27 30  1  0  0  0
 28 29  2  0  0  0
 28  1  1  0  0  0
  1  2  1  0  0  0
  1  9  2  0  0  0
  2  3  2  0  0  0
  3  4  1  0  0  0
  4  5  1  0  0  0
  4  8  2  0  0  0
  5  6  1  0  0  0
  5 10  1  0  0  0
  6 11  1  0  0  0
  6  7  2  0  0  0
 11 12  1  0  0  0
 11 20  2  0  0  0
 12 13  2  0  0  0
 13 14  1  0  0  0
 13 18  1  0  0  0
 14 15  2  0  0  0
 15 16  1  0  0  0
 16 17  2  0  0  0
 17 18  1  0  0  0
 18 19  2  0  0  0
 19 20  1  0  0  0
 20 21  1  0  0  0
 21 22  1  0  0  0
  7  8  1  0  0  0
  8  9  1  0  0  0
 30 31  1  0  0  0
M  END
> <minimizedAffinity>
-10.70976

$$$$
