CHEMBL399119


 25 28  0  0  0  0  0  0  0  0999 V2000
  -29.5603   -7.9236   -7.4642 C   0  0  0  0  0  0  0  0  0  0  0  0
  -30.3248   -8.8804   -8.0377 C   0  0  0  0  0  0  0  0  0  0  0  0
  -31.7869   -9.1102   -7.9660 C   0  0  0  0  0  0  0  0  0  0  0  0
  -32.6864   -8.3409   -7.6908 O   0  0  0  0  0  0  0  0  0  0  0  0
  -31.9238  -10.4300   -8.3745 N   0  0  0  0  0  0  0  0  0  0  0  0
  -30.7871  -10.9803   -8.9094 N   0  0  0  0  0  0  0  0  0  0  0  0
  -29.8398  -10.0791   -8.7820 C   0  0  0  0  0  0  0  0  0  0  0  0
  -32.8174  -10.8950   -8.4817 H   0  0  0  0  0  0  0  0  0  0  0  0
  -28.7725   -3.2475   -7.2411 C   0  0  0  0  0  0  0  0  0  0  0  0
  -29.4870   -2.6826   -6.1888 C   0  0  0  0  0  0  0  0  0  0  0  0
  -30.2435   -3.4735   -5.3303 C   0  0  0  0  0  0  0  0  0  0  0  0
  -30.2800   -4.8541   -5.5609 C   0  0  0  0  0  0  0  0  0  0  0  0
  -29.6381   -5.4640   -6.6475 C   0  0  0  0  0  0  0  0  0  0  0  0
  -28.8734   -4.6285   -7.5048 C   0  0  0  0  0  0  0  0  0  0  0  0
  -29.9624   -6.8685   -6.5822 C   0  0  0  0  0  0  0  0  0  0  0  0
  -30.6465   -7.0674   -5.4035 C   0  0  0  0  0  0  0  0  0  0  0  0
  -30.8983   -5.8493   -4.8374 N   0  0  0  0  0  0  0  0  0  0  0  0
  -31.6661   -5.6396   -3.6340 C   0  0  0  0  0  0  0  0  0  0  0  0
  -27.7845   -1.1516   -7.6988 C   0  0  0  0  0  0  0  0  0  0  0  0
  -27.9757   -2.5152   -8.0869 O   0  0  0  0  0  0  0  0  0  0  0  0
  -28.5474  -10.2565   -9.3588 C   0  0  0  0  0  0  0  0  0  0  0  0
  -28.0474   -9.9450  -10.6070 C   0  0  0  0  0  0  0  0  0  0  0  0
  -26.7332  -10.3204  -10.8296 N   0  0  0  0  0  0  0  0  0  0  0  0
  -26.2176  -10.9316   -9.7767 N   0  0  0  0  0  0  0  0  0  0  0  0
  -27.3026  -11.0772   -8.5129 S   0  0  0  0  0  0  0  0  0  0  0  0
 19 20  1  0  0  0
 20  9  1  0  0  0
  9 10  1  0  0  0
  9 14  2  0  0  0
 10 11  2  0  0  0
 11 12  1  0  0  0
 12 13  2  0  0  0
 12 17  1  0  0  0
 13 14  1  0  0  0
 13 15  1  0  0  0
 15  1  1  0  0  0
 15 16  2  0  0  0
  1  2  2  0  0  0
  2  3  1  0  0  0
  2  7  1  0  0  0
  3  4  2  0  0  0
  3  5  1  0  0  0
  5  6  1  0  0  0
  5  8  1  0  0  0
  6  7  2  0  0  0
  7 21  1  0  0  0
 21 22  2  0  0  0
 21 25  1  0  0  0
 22 23  1  0  0  0
 23 24  2  0  0  0
 24 25  1  0  0  0
 16 17  1  0  0  0
 17 18  1  0  0  0
M  END
> <minimizedAffinity>
-8.33024

$$$$
