CHEMBL1241391


 21 23  0  0  0  0  0  0  0  0999 V2000
  -30.4598   -4.8772   -4.8247 N   0  0  0  0  0  0  0  0  0  0  0  0
  -30.2860   -3.5896   -4.4602 N   0  0  0  0  0  0  0  0  0  0  0  0
  -29.5300   -3.0593   -5.4424 C   0  0  0  0  0  0  0  0  0  0  0  0
  -29.1905   -4.0440   -6.4249 C   0  0  0  0  0  0  0  0  0  0  0  0
  -28.4380   -4.1469   -7.6033 C   0  0  0  0  0  0  0  0  0  0  0  0
  -27.6996   -3.1207   -8.1740 N   0  0  0  0  0  0  0  0  0  0  0  0
  -28.4043   -5.3278   -8.2509 N   0  0  0  0  0  0  0  0  0  0  0  0
  -29.0827   -6.3668   -7.7330 C   0  0  0  0  0  0  0  0  0  0  0  0
  -29.8144   -6.4000   -6.6069 N   0  0  0  0  0  0  0  0  0  0  0  0
  -29.8360   -5.2011   -5.9993 C   0  0  0  0  0  0  0  0  0  0  0  0
  -27.2517   -2.4763   -7.5343 H   0  0  0  0  0  0  0  0  0  0  0  0
  -27.0916   -3.4774   -8.9068 H   0  0  0  0  0  0  0  0  0  0  0  0
  -29.1237   -1.6646   -5.3770 C   0  0  0  0  0  0  0  0  0  0  0  0
  -30.0190   -0.6262   -5.5435 C   0  0  0  0  0  0  0  0  0  0  0  0
  -29.7009    0.6800   -5.3848 N   0  0  0  0  0  0  0  0  0  0  0  0
  -28.4246    0.9334   -5.0595 C   0  0  0  0  0  0  0  0  0  0  0  0
  -27.4548    0.0195   -4.9166 N   0  0  0  0  0  0  0  0  0  0  0  0
  -27.8297   -1.2622   -5.1159 C   0  0  0  0  0  0  0  0  0  0  0  0
  -30.2794   -6.6770   -3.1478 C   0  0  0  0  0  0  0  0  0  0  0  0
  -31.2159   -5.7751   -3.9554 C   0  0  0  0  0  0  0  0  0  0  0  0
  -32.1578   -5.0029   -3.0299 C   0  0  0  0  0  0  0  0  0  0  0  0
 19 20  1  0  0  0
 20 21  1  0  0  0
 20  1  1  0  0  0
  1  2  1  0  0  0
  1 10  1  0  0  0
  2  3  2  0  0  0
  3 13  1  0  0  0
  3  4  1  0  0  0
 13 14  1  0  0  0
 13 18  2  0  0  0
 14 15  2  0  0  0
 15 16  1  0  0  0
 16 17  2  0  0  0
 17 18  1  0  0  0
  4  5  1  0  0  0
  4 10  2  0  0  0
  5  6  1  0  0  0
  5  7  2  0  0  0
  6 11  1  0  0  0
  6 12  1  0  0  0
  7  8  1  0  0  0
  8  9  2  0  0  0
  9 10  1  0  0  0
M  END
> <minimizedAffinity>
-6.64427

$$$$
