CHEMBL1760035


 32 35  0  0  0  0  0  0  0  0999 V2000
  -15.4035   -0.2481  -13.0794 C   0  0  0  0  0  0  0  0  0  0  0  0
  -14.0907   -0.1682  -13.3195 N   0  0  0  0  0  0  0  0  0  0  0  0
  -13.7226    0.5474  -14.3994 C   0  0  0  0  0  0  0  0  0  0  0  0
  -14.6084    1.1843  -15.2371 C   0  0  0  0  0  0  0  0  0  0  0  0
  -15.9369    1.0617  -14.9116 C   0  0  0  0  0  0  0  0  0  0  0  0
  -16.3315    0.3550  -13.8434 N   0  0  0  0  0  0  0  0  0  0  0  0
  -15.8153   -1.0449  -11.9994 N   0  0  0  0  0  0  0  0  0  0  0  0
  -15.6514   -0.5149  -11.1513 H   0  0  0  0  0  0  0  0  0  0  0  0
  -15.3776   -4.6604  -12.8548 C   0  0  0  0  0  0  0  0  0  0  0  0
  -15.5815   -3.2828  -12.9705 C   0  0  0  0  0  0  0  0  0  0  0  0
  -15.5510   -2.4250  -11.8636 C   0  0  0  0  0  0  0  0  0  0  0  0
  -15.2178   -2.9567  -10.6167 C   0  0  0  0  0  0  0  0  0  0  0  0
  -15.0319   -4.3379  -10.4655 C   0  0  0  0  0  0  0  0  0  0  0  0
  -15.1117   -5.1988  -11.5831 C   0  0  0  0  0  0  0  0  0  0  0  0
  -14.4562   -5.5579  -14.8599 C   0  0  0  0  0  0  0  0  0  0  0  0
  -15.5261   -5.5084  -13.9207 O   0  0  0  0  0  0  0  0  0  0  0  0
  -14.7227   -4.9247   -9.2584 O   0  0  0  0  0  0  0  0  0  0  0  0
  -13.3871   -4.7469   -8.8038 C   0  0  0  0  0  0  0  0  0  0  0  0
  -14.9799   -6.5388  -11.2931 O   0  0  0  0  0  0  0  0  0  0  0  0
  -13.7291   -7.1453  -11.5838 C   0  0  0  0  0  0  0  0  0  0  0  0
  -16.9718    1.5463  -15.7163 N   0  0  0  0  0  0  0  0  0  0  0  0
  -16.9604    0.9864  -16.5691 H   0  0  0  0  0  0  0  0  0  0  0  0
  -18.2763    1.9619  -15.4029 C   0  0  0  0  0  0  0  0  0  0  0  0
  -18.7052    3.2805  -15.3391 C   0  0  0  0  0  0  0  0  0  0  0  0
  -19.9514    3.6738  -14.9686 N   0  0  0  0  0  0  0  0  0  0  0  0
  -20.8374    2.7227  -14.6231 C   0  0  0  0  0  0  0  0  0  0  0  0
  -22.0995    3.0847  -14.1685 C   0  0  0  0  0  0  0  0  0  0  0  0
  -23.0416    2.1306  -13.7700 C   0  0  0  0  0  0  0  0  0  0  0  0
  -22.7320    0.7780  -13.8478 C   0  0  0  0  0  0  0  0  0  0  0  0
  -21.4785    0.3860  -14.3126 C   0  0  0  0  0  0  0  0  0  0  0  0
  -20.5233    1.3505  -14.6828 C   0  0  0  0  0  0  0  0  0  0  0  0
  -19.2305    0.9895  -15.0914 C   0  0  0  0  0  0  0  0  0  0  0  0
 15 16  1  0  0  0
 16  9  1  0  0  0
  9 10  1  0  0  0
  9 14  2  0  0  0
 10 11  2  0  0  0
 11  7  1  0  0  0
 11 12  1  0  0  0
  7  1  1  0  0  0
  7  8  1  0  0  0
  1  2  1  0  0  0
  1  6  2  0  0  0
  2  3  2  0  0  0
  3  4  1  0  0  0
  4  5  2  0  0  0
  5 21  1  0  0  0
  5  6  1  0  0  0
 21 23  1  0  0  0
 21 22  1  0  0  0
 23 24  1  0  0  0
 23 32  2  0  0  0
 24 25  2  0  0  0
 25 26  1  0  0  0
 26 27  1  0  0  0
 26 31  2  0  0  0
 27 28  2  0  0  0
 28 29  1  0  0  0
 29 30  2  0  0  0
 30 31  1  0  0  0
 31 32  1  0  0  0
 12 13  2  0  0  0
 13 17  1  0  0  0
 13 14  1  0  0  0
 17 18  1  0  0  0
 14 19  1  0  0  0
 19 20  1  0  0  0
M  END
> <minimizedAffinity>
-9.43693

$$$$
