CHEMBL3668019


 32 36  0  0  0  0  0  0  0  0999 V2000
  -15.3304   -0.9418  -13.4963 C   0  0  0  0  0  0  0  0  0  0  0  0
  -14.2913   -1.8888  -13.9260 C   0  0  0  0  0  0  0  0  0  0  0  0
  -13.7652   -2.8541  -13.2262 N   0  0  0  0  0  0  0  0  0  0  0  0
  -14.2102   -3.2914  -11.9629 C   0  0  0  0  0  0  0  0  0  0  0  0
  -13.9237   -4.4564  -10.9166 C   0  0  0  0  0  0  0  0  0  0  0  0
  -14.7962   -3.8911   -9.9101 C   0  0  0  0  0  0  0  0  0  0  0  0
  -15.5250   -2.7898  -10.2171 N   0  0  0  0  0  0  0  0  0  0  0  0
  -15.2208   -2.4202  -11.4737 N   0  0  0  0  0  0  0  0  0  0  0  0
  -15.7463   -1.2721  -12.2482 C   0  0  0  0  0  0  0  0  0  0  0  0
  -12.7374   -5.7980  -10.9509 C   0  0  0  0  0  0  0  0  0  0  0  0
  -11.2778   -6.4753  -10.4872 C   0  0  0  0  0  0  0  0  0  0  0  0
  -10.7357   -7.6731  -10.9523 C   0  0  0  0  0  0  0  0  0  0  0  0
  -11.8688   -8.2403  -11.1407 N   0  0  0  0  0  0  0  0  0  0  0  0
  -12.5360   -7.7403  -12.1035 C   0  0  0  0  0  0  0  0  0  0  0  0
  -12.6222   -8.6391  -13.0937 C   0  0  0  0  0  0  0  0  0  0  0  0
  -13.7876   -8.7287  -13.7958 C   0  0  0  0  0  0  0  0  0  0  0  0
  -14.7718   -7.8220  -13.5267 C   0  0  0  0  0  0  0  0  0  0  0  0
  -14.5308   -6.8898  -12.5164 C   0  0  0  0  0  0  0  0  0  0  0  0
  -13.3131   -6.6845  -11.8667 C   0  0  0  0  0  0  0  0  0  0  0  0
  -16.4451    2.6005  -15.7666 C   0  0  0  0  0  0  0  0  0  0  0  0
  -17.4206    1.6751  -15.4062 C   0  0  0  0  0  0  0  0  0  0  0  0
  -17.0728    0.5015  -14.7068 C   0  0  0  0  0  0  0  0  0  0  0  0
  -15.7382    0.2285  -14.3496 C   0  0  0  0  0  0  0  0  0  0  0  0
  -14.7636    1.1113  -14.8399 C   0  0  0  0  0  0  0  0  0  0  0  0
  -15.1118    2.3197  -15.4728 C   0  0  0  0  0  0  0  0  0  0  0  0
  -16.7091    3.7286  -16.4950 O   0  0  0  0  0  0  0  0  0  0  0  0
  -15.5520    4.4944  -16.8517 C   0  0  0  0  0  0  0  0  0  0  0  0
  -15.4723    4.5568  -18.3658 C   0  0  0  0  0  0  0  0  0  0  0  0
  -14.3139    3.7099  -18.8954 C   0  0  0  0  0  0  0  0  0  0  0  0
  -13.7543    5.9318  -19.6133 C   0  0  0  0  0  0  0  0  0  0  0  0
  -13.3433    4.5260  -19.6416 N   0  0  0  0  0  0  0  0  0  0  0  0
  -12.0047    4.4088  -19.0567 C   0  0  0  0  0  0  0  0  0  0  0  0
 30 31  1  0  0  0
 31 32  1  0  0  0
 31 29  1  0  0  0
 29 28  1  0  0  0
 28 27  1  0  0  0
 27 26  1  0  0  0
 26 20  1  0  0  0
 20 21  1  0  0  0
 20 25  2  0  0  0
 21 22  2  0  0  0
 22 23  1  0  0  0
 23  1  1  0  0  0
 23 24  2  0  0  0
  1  2  1  0  0  0
  1  9  2  0  0  0
  2  3  2  0  0  0
  3  4  1  0  0  0
  4  5  2  0  0  0
  4  8  1  0  0  0
  5 10  1  0  0  0
  5  6  1  0  0  0
 10 11  1  0  0  0
 10 19  2  0  0  0
 11 12  2  0  0  0
 12 13  1  0  0  0
 13 14  2  0  0  0
 14 15  1  0  0  0
 14 19  1  0  0  0
 15 16  2  0  0  0
 16 17  1  0  0  0
 17 18  2  0  0  0
 18 19  1  0  0  0
  6  7  2  0  0  0
  7  8  1  0  0  0
  8  9  1  0  0  0
 24 25  1  0  0  0
M  END
> <minimizedAffinity>
-7.68788

$$$$
