CHEMBL4521454


 29 31  0  0  0  0  0  0  0  0999 V2000
  -25.7195   -1.8392  -12.6536 C   0  0  0  0  0  0  0  0  0  0  0  0
  -26.6921   -1.8445  -13.6572 C   0  0  0  0  0  0  0  0  0  0  0  0
  -26.4210   -1.3432  -14.9234 C   0  0  0  0  0  0  0  0  0  0  0  0
  -25.1783   -0.7911  -15.1971 C   0  0  0  0  0  0  0  0  0  0  0  0
  -24.1949   -0.7090  -14.2094 C   0  0  0  0  0  0  0  0  0  0  0  0
  -24.4604   -1.2731  -12.9438 C   0  0  0  0  0  0  0  0  0  0  0  0
  -27.8818   -1.1716  -10.8006 O   0  0  0  0  0  0  0  0  0  0  0  0
  -26.9961   -1.9600  -10.4985 C   0  0  0  0  0  0  0  0  0  0  0  0
  -26.8867   -2.5399   -9.2422 N   0  0  0  0  0  0  0  0  0  0  0  0
  -25.9681   -2.3544  -11.3485 N   0  0  0  0  0  0  0  0  0  0  0  0
  -26.0359   -3.0413   -9.0444 H   0  0  0  0  0  0  0  0  0  0  0  0
  -25.3625   -3.0986  -11.0386 H   0  0  0  0  0  0  0  0  0  0  0  0
  -27.7315   -2.2696   -8.1342 C   0  0  0  0  0  0  0  0  0  0  0  0
  -27.7001   -1.0782   -7.3985 C   0  0  0  0  0  0  0  0  0  0  0  0
  -28.5034   -0.9078   -6.2648 C   0  0  0  0  0  0  0  0  0  0  0  0
  -29.3578   -1.9275   -5.8652 C   0  0  0  0  0  0  0  0  0  0  0  0
  -30.3159   -1.7370   -4.4495 Cl  0  0  0  0  0  0  0  0  0  0  0  0
  -29.4332   -3.1040   -6.6054 C   0  0  0  0  0  0  0  0  0  0  0  0
  -28.6289   -3.2706   -7.7417 C   0  0  0  0  0  0  0  0  0  0  0  0
  -22.9604   -0.0541  -14.4427 N   0  0  0  0  0  0  0  0  0  0  0  0
  -22.6508    1.2443  -14.0481 C   0  0  0  0  0  0  0  0  0  0  0  0
  -23.3937    2.0306  -13.4665 O   0  0  0  0  0  0  0  0  0  0  0  0
  -22.1836   -0.5843  -14.8244 H   0  0  0  0  0  0  0  0  0  0  0  0
  -21.2472    1.6854  -14.3237 C   0  0  0  0  0  0  0  0  0  0  0  0
  -20.3552    0.7678  -14.8799 C   0  0  0  0  0  0  0  0  0  0  0  0
  -19.0671    1.1899  -15.1816 C   0  0  0  0  0  0  0  0  0  0  0  0
  -18.7140    2.5064  -14.9154 C   0  0  0  0  0  0  0  0  0  0  0  0
  -19.6647    3.3495  -14.3479 C   0  0  0  0  0  0  0  0  0  0  0  0
  -20.9321    2.9789  -14.0464 N   0  0  0  0  0  0  0  0  0  0  0  0
  7  8  2  0  0  0
  8  9  1  0  0  0
  8 10  1  0  0  0
  9 13  1  0  0  0
  9 11  1  0  0  0
 13 14  1  0  0  0
 13 19  2  0  0  0
 14 15  2  0  0  0
 15 16  1  0  0  0
 16 17  1  0  0  0
 16 18  2  0  0  0
 18 19  1  0  0  0
 10  1  1  0  0  0
 10 12  1  0  0  0
  1  2  1  0  0  0
  1  6  2  0  0  0
  2  3  2  0  0  0
  3  4  1  0  0  0
  4  5  2  0  0  0
  5 20  1  0  0  0
  5  6  1  0  0  0
 20 21  1  0  0  0
 20 23  1  0  0  0
 21 22  2  0  0  0
 21 24  1  0  0  0
 24 25  1  0  0  0
 24 29  2  0  0  0
 25 26  2  0  0  0
 26 27  1  0  0  0
 27 28  2  0  0  0
 28 29  1  0  0  0
M  END
> <minimizedAffinity>
-9.92667

$$$$
