CHEMBL515258


 44 48  0  0  0  0  0  0  0  0999 V2000
  -21.8317    1.4030  -13.7201 N   0  0  0  0  0  0  0  0  0  0  0  0
  -22.3213    0.1333  -13.9781 C   0  0  0  0  0  0  0  0  0  0  0  0
  -21.8021   -0.7119  -14.7073 O   0  0  0  0  0  0  0  0  0  0  0  0
  -22.3206    1.9989  -13.0665 H   0  0  0  0  0  0  0  0  0  0  0  0
  -17.0094    3.4914  -16.0751 C   0  0  0  0  0  0  0  0  0  0  0  0
  -18.2122    2.8768  -15.4114 C   0  0  0  0  0  0  0  0  0  0  0  0
  -19.2845    3.7416  -15.1482 C   0  0  0  0  0  0  0  0  0  0  0  0
  -20.4616    3.2852  -14.5668 C   0  0  0  0  0  0  0  0  0  0  0  0
  -20.6326    1.9409  -14.2707 C   0  0  0  0  0  0  0  0  0  0  0  0
  -19.5596    1.0793  -14.5185 C   0  0  0  0  0  0  0  0  0  0  0  0
  -18.3098    1.5249  -15.0167 C   0  0  0  0  0  0  0  0  0  0  0  0
  -17.2036    0.6514  -15.1207 N   0  0  0  0  0  0  0  0  0  0  0  0
  -16.5019    0.8801  -15.8091 H   0  0  0  0  0  0  0  0  0  0  0  0
  -16.6586   -0.2252  -14.1756 C   0  0  0  0  0  0  0  0  0  0  0  0
  -16.5050   -1.5251  -14.4618 N   0  0  0  0  0  0  0  0  0  0  0  0
  -15.9636   -2.3354  -13.5358 C   0  0  0  0  0  0  0  0  0  0  0  0
  -15.5520   -1.9277  -12.2881 C   0  0  0  0  0  0  0  0  0  0  0  0
  -15.7826   -0.5780  -12.0763 C   0  0  0  0  0  0  0  0  0  0  0  0
  -16.3164    0.2828  -12.9842 N   0  0  0  0  0  0  0  0  0  0  0  0
  -14.9201   -2.8340  -11.3200 C   0  0  0  0  0  0  0  0  0  0  0  0
  -13.6501   -3.3864  -11.5362 C   0  0  0  0  0  0  0  0  0  0  0  0
  -13.0850   -4.2584  -10.6058 C   0  0  0  0  0  0  0  0  0  0  0  0
  -13.8107   -4.5722   -9.4718 C   0  0  0  0  0  0  0  0  0  0  0  0
  -15.0383   -4.0809   -9.2178 N   0  0  0  0  0  0  0  0  0  0  0  0
  -15.5558   -3.2306  -10.1375 C   0  0  0  0  0  0  0  0  0  0  0  0
  -23.5839   -0.2861  -13.3264 C   0  0  0  0  0  0  0  0  0  0  0  0
  -24.5310   -1.1334  -13.8961 C   0  0  0  0  0  0  0  0  0  0  0  0
  -25.6367   -1.5195  -13.1295 C   0  0  0  0  0  0  0  0  0  0  0  0
  -25.7528   -1.0656  -11.8110 C   0  0  0  0  0  0  0  0  0  0  0  0
  -24.8435   -0.2472  -11.2239 N   0  0  0  0  0  0  0  0  0  0  0  0
  -23.7906    0.1211  -12.0022 C   0  0  0  0  0  0  0  0  0  0  0  0
  -26.9047   -1.5291  -10.9637 C   0  0  0  0  0  0  0  0  0  0  0  0
  -27.9984   -1.6667  -11.5057 O   0  0  0  0  0  0  0  0  0  0  0  0
  -26.5928   -1.8100   -9.6455 N   0  0  0  0  0  0  0  0  0  0  0  0
  -25.6218   -1.6759   -9.3844 H   0  0  0  0  0  0  0  0  0  0  0  0
  -27.4736   -2.2917   -8.6432 C   0  0  0  0  0  0  0  0  0  0  0  0
  -28.0644   -3.5602   -8.7185 C   0  0  0  0  0  0  0  0  0  0  0  0
  -28.9773   -3.9896   -7.7510 C   0  0  0  0  0  0  0  0  0  0  0  0
  -29.3042   -3.1603   -6.6861 C   0  0  0  0  0  0  0  0  0  0  0  0
  -28.7136   -1.9006   -6.5879 C   0  0  0  0  0  0  0  0  0  0  0  0
  -27.7704   -1.4643   -7.5352 C   0  0  0  0  0  0  0  0  0  0  0  0
  -27.2978   -0.1359   -7.4432 N   0  0  0  0  0  0  0  0  0  0  0  0
  -27.3246    0.2178   -6.4905 H   0  0  0  0  0  0  0  0  0  0  0  0
  -26.3791   -0.0076   -7.8503 H   0  0  0  0  0  0  0  0  0  0  0  0
  5  6  1  0  0  0
  6  7  1  0  0  0
  6 11  2  0  0  0
  7  8  2  0  0  0
  8  9  1  0  0  0
  9  1  1  0  0  0
  9 10  2  0  0  0
  1  2  1  0  0  0
  1  4  1  0  0  0
  2  3  2  0  0  0
  2 26  1  0  0  0
 26 27  1  0  0  0
 26 31  2  0  0  0
 27 28  2  0  0  0
 28 29  1  0  0  0
 29 32  1  0  0  0
 29 30  2  0  0  0
 32 33  2  0  0  0
 32 34  1  0  0  0
 34 36  1  0  0  0
 34 35  1  0  0  0
 36 37  1  0  0  0
 36 41  2  0  0  0
 37 38  2  0  0  0
 38 39  1  0  0  0
 39 40  2  0  0  0
 40 41  1  0  0  0
 41 42  1  0  0  0
 42 43  1  0  0  0
 42 44  1  0  0  0
 30 31  1  0  0  0
 10 11  1  0  0  0
 11 12  1  0  0  0
 12 14  1  0  0  0
 12 13  1  0  0  0
 14 15  1  0  0  0
 14 19  2  0  0  0
 15 16  2  0  0  0
 16 17  1  0  0  0
 17 20  1  0  0  0
 17 18  2  0  0  0
 20 21  1  0  0  0
 20 25  2  0  0  0
 21 22  2  0  0  0
 22 23  1  0  0  0
 23 24  2  0  0  0
 24 25  1  0  0  0
 18 19  1  0  0  0
M  END
> <minimizedAffinity>
-10.48206

$$$$
