CHEMBL2148120


 45 50  0  0  0  0  0  0  0  0999 V2000
  -25.8308  -11.5362   -3.2830 C   0  0  0  0  0  0  0  0  0  0  0  0
  -27.0669  -11.8860   -3.0033 N   0  0  0  0  0  0  0  0  0  0  0  0
  -27.9693  -11.0937   -3.6538 C   0  0  0  0  0  0  0  0  0  0  0  0
  -29.3607  -11.2208   -3.6402 C   0  0  0  0  0  0  0  0  0  0  0  0
  -30.0941  -10.3049   -4.3861 C   0  0  0  0  0  0  0  0  0  0  0  0
  -29.4345   -9.3106   -5.1168 C   0  0  0  0  0  0  0  0  0  0  0  0
  -28.0804   -9.1595   -5.1382 N   0  0  0  0  0  0  0  0  0  0  0  0
  -27.4134  -10.0704   -4.4017 C   0  0  0  0  0  0  0  0  0  0  0  0
  -25.7106  -10.1201   -4.2741 S   0  0  0  0  0  0  0  0  0  0  0  0
  -30.1834   -8.3232   -5.9233 C   0  0  0  0  0  0  0  0  0  0  0  0
  -31.3070   -8.6805   -6.6947 C   0  0  0  0  0  0  0  0  0  0  0  0
  -32.0183   -7.7288   -7.4293 C   0  0  0  0  0  0  0  0  0  0  0  0
  -31.6090   -6.3998   -7.4165 C   0  0  0  0  0  0  0  0  0  0  0  0
  -30.4836   -6.0186   -6.6782 C   0  0  0  0  0  0  0  0  0  0  0  0
  -29.7865   -6.9736   -5.9307 C   0  0  0  0  0  0  0  0  0  0  0  0
  -30.0895   -4.5864   -6.6653 C   0  0  0  0  0  0  0  0  0  0  0  0
  -30.4735   -3.8823   -7.5960 O   0  0  0  0  0  0  0  0  0  0  0  0
  -29.2669   -4.1959   -5.6206 N   0  0  0  0  0  0  0  0  0  0  0  0
  -28.8722   -4.9288   -5.0446 H   0  0  0  0  0  0  0  0  0  0  0  0
  -28.7798   -2.8900   -5.3945 C   0  0  0  0  0  0  0  0  0  0  0  0
  -27.5064   -2.6297   -4.8856 C   0  0  0  0  0  0  0  0  0  0  0  0
  -27.0926   -1.3214   -4.6321 C   0  0  0  0  0  0  0  0  0  0  0  0
  -27.9468   -0.2553   -4.8959 C   0  0  0  0  0  0  0  0  0  0  0  0
  -29.2157   -0.4858   -5.4430 C   0  0  0  0  0  0  0  0  0  0  0  0
  -29.6202   -1.8110   -5.6986 C   0  0  0  0  0  0  0  0  0  0  0  0
  -30.1425    0.6648   -5.7462 C   0  0  0  0  0  0  0  0  0  0  0  0
  -30.1721    1.6142   -4.7694 F   0  0  0  0  0  0  0  0  0  0  0  0
  -29.8005    1.3196   -6.8905 F   0  0  0  0  0  0  0  0  0  0  0  0
  -31.4332    0.2658   -5.9163 F   0  0  0  0  0  0  0  0  0  0  0  0
  -24.7248  -12.2091   -2.8779 N   0  0  0  0  0  0  0  0  0  0  0  0
  -24.5590  -12.3529   -1.8906 H   0  0  0  0  0  0  0  0  0  0  0  0
  -19.9530  -12.4641   -2.8178 C   0  0  0  0  0  0  0  0  0  0  0  0
  -21.2292  -12.3932   -3.5964 C   0  0  0  0  0  0  0  0  0  0  0  0
  -22.3869  -12.3812   -2.8946 N   0  0  0  0  0  0  0  0  0  0  0  0
  -23.5229  -12.3036   -3.5982 C   0  0  0  0  0  0  0  0  0  0  0  0
  -23.4821  -12.3110   -4.9753 C   0  0  0  0  0  0  0  0  0  0  0  0
  -22.2662  -12.3410   -5.6258 C   0  0  0  0  0  0  0  0  0  0  0  0
  -21.1213  -12.3497   -4.9399 N   0  0  0  0  0  0  0  0  0  0  0  0
  -22.3040  -12.3304   -7.0137 N   0  0  0  0  0  0  0  0  0  0  0  0
  -23.5133  -11.9006   -7.7087 C   0  0  0  0  0  0  0  0  0  0  0  0
  -23.4447  -12.4639   -9.1588 C   0  0  0  0  0  0  0  0  0  0  0  0
  -22.2078  -12.1104   -9.9015 N   0  0  0  0  0  0  0  0  0  0  0  0
  -21.0225  -12.4655   -9.0891 C   0  0  0  0  0  0  0  0  0  0  0  0
  -21.0654  -11.8787   -7.6627 C   0  0  0  0  0  0  0  0  0  0  0  0
  -22.2044  -11.0983  -10.0307 H   0  0  0  0  0  0  0  0  0  0  0  0
 32 33  1  0  0  0
 33 34  1  0  0  0
 33 38  2  0  0  0
 34 35  2  0  0  0
 35 30  1  0  0  0
 35 36  1  0  0  0
 30  1  1  0  0  0
 30 31  1  0  0  0
  1  2  2  0  0  0
  1  9  1  0  0  0
  2  3  1  0  0  0
  3  4  1  0  0  0
  3  8  2  0  0  0
  4  5  2  0  0  0
  5  6  1  0  0  0
  6 10  1  0  0  0
  6  7  2  0  0  0
 10 11  1  0  0  0
 10 15  2  0  0  0
 11 12  2  0  0  0
 12 13  1  0  0  0
 13 14  2  0  0  0
 14 16  1  0  0  0
 14 15  1  0  0  0
 16 17  2  0  0  0
 16 18  1  0  0  0
 18 20  1  0  0  0
 18 19  1  0  0  0
 20 21  1  0  0  0
 20 25  2  0  0  0
 21 22  2  0  0  0
 22 23  1  0  0  0
 23 24  2  0  0  0
 24 26  1  0  0  0
 24 25  1  0  0  0
 26 27  1  0  0  0
 26 28  1  0  0  0
 26 29  1  0  0  0
  7  8  1  0  0  0
  8  9  1  0  0  0
 36 37  2  0  0  0
 37 39  1  0  0  0
 37 38  1  0  0  0
 39 40  1  0  0  0
 39 44  1  0  0  0
 40 41  1  0  0  0
 41 42  1  0  0  0
 42 43  1  0  0  0
 42 45  1  0  0  0
 43 44  1  0  0  0
M  END
> <minimizedAffinity>
-3.95439

$$$$
