CHEMBL1241863


 27 30  0  0  0  0  0  0  0  0999 V2000
  -30.5007   -8.0730   -6.6974 N   0  0  0  0  0  0  0  0  0  0  0  0
  -30.5438   -6.7641   -7.0292 N   0  0  0  0  0  0  0  0  0  0  0  0
  -29.4795   -6.2251   -6.4040 C   0  0  0  0  0  0  0  0  0  0  0  0
  -28.7994   -7.2029   -5.6010 C   0  0  0  0  0  0  0  0  0  0  0  0
  -27.7137   -7.2847   -4.7082 C   0  0  0  0  0  0  0  0  0  0  0  0
  -26.9013   -6.2301   -4.3144 N   0  0  0  0  0  0  0  0  0  0  0  0
  -27.4191   -8.4756   -4.1478 N   0  0  0  0  0  0  0  0  0  0  0  0
  -28.1809   -9.5396   -4.4549 C   0  0  0  0  0  0  0  0  0  0  0  0
  -29.2344   -9.5827   -5.2809 N   0  0  0  0  0  0  0  0  0  0  0  0
  -29.4916   -8.3820   -5.8261 C   0  0  0  0  0  0  0  0  0  0  0  0
  -27.3750   -5.3428   -4.2040 H   0  0  0  0  0  0  0  0  0  0  0  0
  -26.3204   -6.5075   -3.5308 H   0  0  0  0  0  0  0  0  0  0  0  0
  -29.1760   -4.7964   -6.5466 C   0  0  0  0  0  0  0  0  0  0  0  0
  -28.8144   -4.2838   -7.8022 C   0  0  0  0  0  0  0  0  0  0  0  0
  -28.3037   -2.9992   -7.9339 C   0  0  0  0  0  0  0  0  0  0  0  0
  -28.3093   -2.1706   -6.8269 C   0  0  0  0  0  0  0  0  0  0  0  0
  -27.8317   -0.8458   -6.9672 N   0  0  0  0  0  0  0  0  0  0  0  0
  -28.6259    0.1117   -6.3612 C   0  0  0  0  0  0  0  0  0  0  0  0
  -28.8522    1.2069   -6.8491 O   0  0  0  0  0  0  0  0  0  0  0  0
  -29.0844   -0.2484   -4.9905 C   0  0  0  0  0  0  0  0  0  0  0  0
  -29.1463   -1.5340   -4.6127 C   0  0  0  0  0  0  0  0  0  0  0  0
  -28.8709   -2.5781   -5.6085 C   0  0  0  0  0  0  0  0  0  0  0  0
  -29.2428   -3.9161   -5.4489 C   0  0  0  0  0  0  0  0  0  0  0  0
  -26.9573   -0.8187   -6.4428 H   0  0  0  0  0  0  0  0  0  0  0  0
  -32.8909   -8.3562   -7.1932 C   0  0  0  0  0  0  0  0  0  0  0  0
  -31.5083   -9.0050   -7.1946 C   0  0  0  0  0  0  0  0  0  0  0  0
  -31.1689   -9.5707   -8.5751 C   0  0  0  0  0  0  0  0  0  0  0  0
 25 26  1  0  0  0
 26 27  1  0  0  0
 26  1  1  0  0  0
  1  2  1  0  0  0
  1 10  1  0  0  0
  2  3  2  0  0  0
  3 13  1  0  0  0
  3  4  1  0  0  0
 13 14  1  0  0  0
 13 23  2  0  0  0
 14 15  2  0  0  0
 15 16  1  0  0  0
 16 17  1  0  0  0
 16 22  2  0  0  0
 17 18  1  0  0  0
 17 24  1  0  0  0
 18 19  2  0  0  0
 18 20  1  0  0  0
 20 21  2  0  0  0
 21 22  1  0  0  0
 22 23  1  0  0  0
  4  5  1  0  0  0
  4 10  2  0  0  0
  5  6  1  0  0  0
  5  7  2  0  0  0
  6 11  1  0  0  0
  6 12  1  0  0  0
  7  8  1  0  0  0
  8  9  2  0  0  0
  9 10  1  0  0  0
M  END
> <minimizedAffinity>
-8.78591

$$$$
