CHEMBL3747182


 35 39  0  0  0  0  0  0  0  0999 V2000
  -14.0011   -1.5816  -13.2412 C   0  0  0  0  0  0  0  0  0  0  0  0
  -15.3764   -1.7577  -13.3940 C   0  0  0  0  0  0  0  0  0  0  0  0
  -16.1807   -0.7443  -13.9211 C   0  0  0  0  0  0  0  0  0  0  0  0
  -15.5573    0.4436  -14.3387 C   0  0  0  0  0  0  0  0  0  0  0  0
  -14.1655    0.5951  -14.2906 C   0  0  0  0  0  0  0  0  0  0  0  0
  -13.8455    1.8272  -14.9113 C   0  0  0  0  0  0  0  0  0  0  0  0
  -15.0236    2.3859  -15.3416 C   0  0  0  0  0  0  0  0  0  0  0  0
  -16.0794    1.5863  -14.9393 N   0  0  0  0  0  0  0  0  0  0  0  0
  -17.4239    1.8740  -15.2248 C   0  0  0  0  0  0  0  0  0  0  0  0
  -17.6899    2.3800  -16.3029 O   0  0  0  0  0  0  0  0  0  0  0  0
  -18.2623    1.6513  -14.1365 N   0  0  0  0  0  0  0  0  0  0  0  0
  -13.3789   -0.4288  -13.7268 C   0  0  0  0  0  0  0  0  0  0  0  0
  -17.8330    1.6070  -13.2185 H   0  0  0  0  0  0  0  0  0  0  0  0
  -19.6541    1.9075  -14.2078 C   0  0  0  0  0  0  0  0  0  0  0  0
  -20.1351    3.2127  -14.3497 C   0  0  0  0  0  0  0  0  0  0  0  0
  -21.5008    3.4806  -14.3332 C   0  0  0  0  0  0  0  0  0  0  0  0
  -22.4081    2.4401  -14.1725 C   0  0  0  0  0  0  0  0  0  0  0  0
  -21.9570    1.1155  -14.0618 C   0  0  0  0  0  0  0  0  0  0  0  0
  -20.5700    0.8519  -14.1132 C   0  0  0  0  0  0  0  0  0  0  0  0
  -22.9525   -0.0015  -13.8541 C   0  0  0  0  0  0  0  0  0  0  0  0
  -23.8424   -0.1356  -14.8786 F   0  0  0  0  0  0  0  0  0  0  0  0
  -22.3550   -1.2170  -13.7201 F   0  0  0  0  0  0  0  0  0  0  0  0
  -23.7052    0.1727  -12.7325 F   0  0  0  0  0  0  0  0  0  0  0  0
  -13.1664   -2.5322  -12.6994 O   0  0  0  0  0  0  0  0  0  0  0  0
  -14.1347   -5.0597  -14.5131 C   0  0  0  0  0  0  0  0  0  0  0  0
  -13.3496   -5.4794  -13.2740 C   0  0  0  0  0  0  0  0  0  0  0  0
  -13.6295   -6.9096  -12.9704 N   0  0  0  0  0  0  0  0  0  0  0  0
  -14.2563   -6.9559  -11.6179 C   0  0  0  0  0  0  0  0  0  0  0  0
  -14.2706   -5.5458  -11.1077 C   0  0  0  0  0  0  0  0  0  0  0  0
  -14.7407   -5.1407   -9.9209 N   0  0  0  0  0  0  0  0  0  0  0  0
  -14.6384   -3.8168   -9.7138 C   0  0  0  0  0  0  0  0  0  0  0  0
  -14.1187   -2.9124  -10.5649 N   0  0  0  0  0  0  0  0  0  0  0  0
  -13.6986   -3.3938  -11.7551 C   0  0  0  0  0  0  0  0  0  0  0  0
  -13.7436   -4.7190  -12.0648 C   0  0  0  0  0  0  0  0  0  0  0  0
  -12.7368   -7.3986  -12.9119 H   0  0  0  0  0  0  0  0  0  0  0  0
 26 27  1  0  0  0
 26 34  1  0  0  0
 26 25  1  0  0  0
 27 28  1  0  0  0
 27 35  1  0  0  0
 28 29  1  0  0  0
 29 30  1  0  0  0
 29 34  2  0  0  0
 30 31  2  0  0  0
 31 32  1  0  0  0
 32 33  2  0  0  0
 33 24  1  0  0  0
 33 34  1  0  0  0
 24  1  1  0  0  0
  1  2  1  0  0  0
  1 12  2  0  0  0
  2  3  2  0  0  0
  3  4  1  0  0  0
  4  5  2  0  0  0
  4  8  1  0  0  0
  5  6  1  0  0  0
  5 12  1  0  0  0
  6  7  2  0  0  0
  7  8  1  0  0  0
  8  9  1  0  0  0
  9 10  2  0  0  0
  9 11  1  0  0  0
 11 14  1  0  0  0
 11 13  1  0  0  0
 14 15  1  0  0  0
 14 19  2  0  0  0
 15 16  2  0  0  0
 16 17  1  0  0  0
 17 18  2  0  0  0
 18 20  1  0  0  0
 18 19  1  0  0  0
 20 21  1  0  0  0
 20 22  1  0  0  0
 20 23  1  0  0  0
M  END
> <minimizedAffinity>
-10.26730

$$$$
