CHEMBL4519953


 25 28  0  0  0  0  0  0  0  0999 V2000
  -19.3115    3.2660  -15.2111 C   0  0  0  0  0  0  0  0  0  0  0  0
  -20.4861    2.4245  -14.7823 C   0  0  0  0  0  0  0  0  0  0  0  0
  -20.4493    1.0323  -14.9092 C   0  0  0  0  0  0  0  0  0  0  0  0
  -21.5276    0.2491  -14.4800 C   0  0  0  0  0  0  0  0  0  0  0  0
  -22.6723    0.8221  -13.8974 C   0  0  0  0  0  0  0  0  0  0  0  0
  -22.6901    2.2218  -13.7709 C   0  0  0  0  0  0  0  0  0  0  0  0
  -21.6189    3.0111  -14.2070 C   0  0  0  0  0  0  0  0  0  0  0  0
  -23.8035   -0.0150  -13.4402 C   0  0  0  0  0  0  0  0  0  0  0  0
  -24.4532   -0.9243  -14.2895 C   0  0  0  0  0  0  0  0  0  0  0  0
  -25.5303   -1.6853  -13.8344 C   0  0  0  0  0  0  0  0  0  0  0  0
  -25.9339   -1.5317  -12.5216 C   0  0  0  0  0  0  0  0  0  0  0  0
  -25.3442   -0.6827  -11.6579 N   0  0  0  0  0  0  0  0  0  0  0  0
  -24.3061    0.0498  -12.1371 C   0  0  0  0  0  0  0  0  0  0  0  0
  -16.3647    1.2440  -15.0442 C   0  0  0  0  0  0  0  0  0  0  0  0
  -17.6373    1.4843  -14.5747 C   0  0  0  0  0  0  0  0  0  0  0  0
  -18.0986    2.4860  -15.3777 N   0  0  0  0  0  0  0  0  0  0  0  0
  -17.1863    2.8300  -16.3064 N   0  0  0  0  0  0  0  0  0  0  0  0
  -16.1134    2.0742  -16.1070 N   0  0  0  0  0  0  0  0  0  0  0  0
  -12.5913   -2.5329  -12.8620 C   0  0  0  0  0  0  0  0  0  0  0  0
  -13.5568   -1.5263  -13.4115 C   0  0  0  0  0  0  0  0  0  0  0  0
  -13.1256   -0.5118  -14.2714 C   0  0  0  0  0  0  0  0  0  0  0  0
  -14.0376    0.4096  -14.7960 C   0  0  0  0  0  0  0  0  0  0  0  0
  -15.3965    0.3306  -14.4696 C   0  0  0  0  0  0  0  0  0  0  0  0
  -15.8245   -0.6730  -13.5917 C   0  0  0  0  0  0  0  0  0  0  0  0
  -14.9135   -1.5983  -13.0720 C   0  0  0  0  0  0  0  0  0  0  0  0
 19 20  1  0  0  0
 20 21  1  0  0  0
 20 25  2  0  0  0
 21 22  2  0  0  0
 22 23  1  0  0  0
 23 14  1  0  0  0
 23 24  2  0  0  0
 14 15  2  0  0  0
 14 18  1  0  0  0
 15 16  1  0  0  0
 16  1  1  0  0  0
 16 17  1  0  0  0
  1  2  1  0  0  0
  2  3  1  0  0  0
  2  7  2  0  0  0
  3  4  2  0  0  0
  4  5  1  0  0  0
  5  8  1  0  0  0
  5  6  2  0  0  0
  8  9  1  0  0  0
  8 13  2  0  0  0
  9 10  2  0  0  0
 10 11  1  0  0  0
 11 12  2  0  0  0
 12 13  1  0  0  0
  6  7  1  0  0  0
 17 18  2  0  0  0
 24 25  1  0  0  0
M  END
> <minimizedAffinity>
-9.37664

$$$$
