CHEMBL281948


 37 44  0  0  0  0  0  0  0  0999 V2000
  -27.6665  -10.3054  -10.8588 C   0  0  0  0  0  0  0  0  0  0  0  0
  -27.3188  -11.6985  -10.9292 O   0  0  0  0  0  0  0  0  0  0  0  0
  -26.4880   -9.2462  -10.4601 C   0  0  0  0  0  0  0  0  0  0  0  0
  -27.1736   -8.0595   -9.4645 C   0  0  0  0  0  0  0  0  0  0  0  0
  -28.4137   -8.4518   -9.9254 O   0  0  0  0  0  0  0  0  0  0  0  0
  -28.4684   -9.9433   -9.6568 C   0  0  0  0  0  0  0  0  0  0  0  0
  -29.9960   -9.8719   -9.5125 C   0  0  0  0  0  0  0  0  0  0  0  0
  -27.6548  -10.5180   -8.4606 N   0  0  0  0  0  0  0  0  0  0  0  0
  -26.4572  -11.3417   -8.1452 C   0  0  0  0  0  0  0  0  0  0  0  0
  -25.4396  -11.9673   -8.9258 C   0  0  0  0  0  0  0  0  0  0  0  0
  -24.2495  -12.4646   -8.3523 C   0  0  0  0  0  0  0  0  0  0  0  0
  -24.0155  -12.4122   -6.9931 C   0  0  0  0  0  0  0  0  0  0  0  0
  -24.9943  -11.9040   -6.1558 C   0  0  0  0  0  0  0  0  0  0  0  0
  -26.1980  -11.3727   -6.6738 C   0  0  0  0  0  0  0  0  0  0  0  0
  -27.2037  -10.6371   -6.0609 C   0  0  0  0  0  0  0  0  0  0  0  0
  -27.3068  -10.1665   -4.7418 C   0  0  0  0  0  0  0  0  0  0  0  0
  -28.2389   -9.1202   -4.6263 C   0  0  0  0  0  0  0  0  0  0  0  0
  -28.3198   -8.4041   -5.8361 C   0  0  0  0  0  0  0  0  0  0  0  0
  -29.2801   -7.5479   -6.3334 C   0  0  0  0  0  0  0  0  0  0  0  0
  -30.6316   -7.3231   -6.0320 C   0  0  0  0  0  0  0  0  0  0  0  0
  -31.2613   -6.2494   -6.5937 C   0  0  0  0  0  0  0  0  0  0  0  0
  -30.5248   -5.3990   -7.4341 C   0  0  0  0  0  0  0  0  0  0  0  0
  -29.2395   -5.7379   -7.9513 C   0  0  0  0  0  0  0  0  0  0  0  0
  -28.6817   -6.9500   -7.5390 C   0  0  0  0  0  0  0  0  0  0  0  0
  -27.6250   -7.8134   -8.0783 N   0  0  0  0  0  0  0  0  0  0  0  0
  -27.7261   -8.6829   -7.0543 C   0  0  0  0  0  0  0  0  0  0  0  0
  -27.7081  -10.0319   -7.2159 C   0  0  0  0  0  0  0  0  0  0  0  0
  -28.4072   -8.7670   -3.2577 C   0  0  0  0  0  0  0  0  0  0  0  0
  -29.1449   -7.9932   -2.6742 O   0  0  0  0  0  0  0  0  0  0  0  0
  -27.4898   -9.5913   -2.6028 N   0  0  0  0  0  0  0  0  0  0  0  0
  -26.6438  -10.4042   -3.4648 C   0  0  0  0  0  0  0  0  0  0  0  0
  -27.8022  -12.1962  -10.2386 H   0  0  0  0  0  0  0  0  0  0  0  0
  -27.3319   -9.4214   -1.6223 H   0  0  0  0  0  0  0  0  0  0  0  0
  -28.3456  -10.1311  -12.2432 C   0  0  0  0  0  0  0  0  0  0  0  0
  -29.4356  -10.6084  -12.5399 O   0  0  0  0  0  0  0  0  0  0  0  0
  -27.5628   -9.4860  -14.4186 C   0  0  0  0  0  0  0  0  0  0  0  0
  -27.7028   -9.1989  -13.0168 O   0  0  0  0  0  0  0  0  0  0  0  0
 36 37  1  0  0  0
 37 34  1  0  0  0
 34 35  2  0  0  0
  1  3  1  0  0  0
  1  6  1  0  0  0
  1  2  1  0  0  0
  1 34  1  0  0  0
  2 32  1  0  0  0
  3  4  1  0  0  0
  4  5  1  0  0  0
  4 25  1  0  0  0
  5  6  1  0  0  0
  6  7  1  0  0  0
  6  8  1  0  0  0
  8  9  1  0  0  0
  8 27  1  0  0  0
  9 10  1  0  0  0
  9 14  2  0  0  0
 10 11  2  0  0  0
 11 12  1  0  0  0
 12 13  2  0  0  0
 13 14  1  0  0  0
 14 15  1  0  0  0
 15 16  1  0  0  0
 15 27  2  0  0  0
 16 17  2  0  0  0
 16 31  1  0  0  0
 17 18  1  0  0  0
 17 28  1  0  0  0
 18 19  1  0  0  0
 18 26  2  0  0  0
 19 20  1  0  0  0
 19 24  2  0  0  0
 20 21  2  0  0  0
 21 22  1  0  0  0
 22 23  2  0  0  0
 23 24  1  0  0  0
 24 25  1  0  0  0
 25 26  1  0  0  0
 26 27  1  0  0  0
 28 29  2  0  0  0
 28 30  1  0  0  0
 30 31  1  0  0  0
 30 33  1  0  0  0
M  END
> <minimizedAffinity>
-3.74226

$$$$
