CHEMBL1242029


 23 25  0  0  0  0  0  0  0  0999 V2000
  -29.4579   -2.8296   -5.7468 C   0  0  0  0  0  0  0  0  0  0  0  0
  -29.6387   -1.5980   -5.2331 N   0  0  0  0  0  0  0  0  0  0  0  0
  -28.9728   -0.7800   -6.0746 N   0  0  0  0  0  0  0  0  0  0  0  0
  -28.3989   -1.4340   -7.1283 C   0  0  0  0  0  0  0  0  0  0  0  0
  -27.6822   -0.8872   -8.1253 N   0  0  0  0  0  0  0  0  0  0  0  0
  -27.2685   -1.8156   -9.0017 C   0  0  0  0  0  0  0  0  0  0  0  0
  -27.5082   -3.1400   -8.9778 N   0  0  0  0  0  0  0  0  0  0  0  0
  -28.2362   -3.6497   -7.9644 C   0  0  0  0  0  0  0  0  0  0  0  0
  -28.4632   -5.0149   -8.0162 N   0  0  0  0  0  0  0  0  0  0  0  0
  -28.7075   -2.7779   -6.9657 C   0  0  0  0  0  0  0  0  0  0  0  0
  -28.2114   -5.3999   -8.9191 H   0  0  0  0  0  0  0  0  0  0  0  0
  -29.3357   -5.3399   -7.6218 H   0  0  0  0  0  0  0  0  0  0  0  0
  -30.0171   -6.3888   -4.6008 C   0  0  0  0  0  0  0  0  0  0  0  0
  -31.1435   -6.2405   -3.7949 C   0  0  0  0  0  0  0  0  0  0  0  0
  -31.6925   -4.9718   -3.5921 C   0  0  0  0  0  0  0  0  0  0  0  0
  -31.1395   -3.8561   -4.2253 C   0  0  0  0  0  0  0  0  0  0  0  0
  -30.0205   -3.9927   -5.0564 C   0  0  0  0  0  0  0  0  0  0  0  0
  -29.4471   -5.2607   -5.1978 C   0  0  0  0  0  0  0  0  0  0  0  0
  -28.7794   -8.2632   -3.8187 C   0  0  0  0  0  0  0  0  0  0  0  0
  -29.3763   -7.5587   -4.8971 O   0  0  0  0  0  0  0  0  0  0  0  0
  -28.9356    0.6555   -5.8140 C   0  0  0  0  0  0  0  0  0  0  0  0
  -30.3440    1.2359   -5.6758 C   0  0  0  0  0  0  0  0  0  0  0  0
  -28.0895    0.9828   -4.5826 C   0  0  0  0  0  0  0  0  0  0  0  0
 19 20  1  0  0  0
 20 13  1  0  0  0
 13 14  1  0  0  0
 13 18  2  0  0  0
 14 15  2  0  0  0
 15 16  1  0  0  0
 16 17  2  0  0  0
 17  1  1  0  0  0
 17 18  1  0  0  0
  1  2  2  0  0  0
  1 10  1  0  0  0
  2  3  1  0  0  0
  3 21  1  0  0  0
  3  4  1  0  0  0
 21 22  1  0  0  0
 21 23  1  0  0  0
  4  5  1  0  0  0
  4 10  2  0  0  0
  5  6  2  0  0  0
  6  7  1  0  0  0
  7  8  2  0  0  0
  8  9  1  0  0  0
  8 10  1  0  0  0
  9 11  1  0  0  0
  9 12  1  0  0  0
M  END
> <minimizedAffinity>
-7.83258

$$$$
