CHEMBL2335376


 30 33  0  0  0  0  0  0  0  0999 V2000
  -15.3575    4.7786  -16.1077 N   0  0  0  0  0  0  0  0  0  0  0  0
  -16.1764    3.6841  -15.8940 C   0  0  0  0  0  0  0  0  0  0  0  0
  -15.5601    2.5084  -15.7204 N   0  0  0  0  0  0  0  0  0  0  0  0
  -16.2861    1.3882  -15.4611 C   0  0  0  0  0  0  0  0  0  0  0  0
  -17.6793    1.5239  -15.3807 C   0  0  0  0  0  0  0  0  0  0  0  0
  -18.7957    0.6733  -15.1443 C   0  0  0  0  0  0  0  0  0  0  0  0
  -19.9386    1.4565  -15.1349 C   0  0  0  0  0  0  0  0  0  0  0  0
  -19.5421    2.7417  -15.4316 N   0  0  0  0  0  0  0  0  0  0  0  0
  -18.1840    2.7961  -15.5683 C   0  0  0  0  0  0  0  0  0  0  0  0
  -17.4901    3.9125  -15.8198 N   0  0  0  0  0  0  0  0  0  0  0  0
  -14.4471    4.5774  -15.7143 H   0  0  0  0  0  0  0  0  0  0  0  0
  -15.8231    5.6124  -15.7793 H   0  0  0  0  0  0  0  0  0  0  0  0
  -20.1320    3.5567  -15.5079 H   0  0  0  0  0  0  0  0  0  0  0  0
  -15.6475    0.1630  -15.2263 N   0  0  0  0  0  0  0  0  0  0  0  0
  -14.8699   -0.0255  -15.8441 H   0  0  0  0  0  0  0  0  0  0  0  0
  -15.6651   -0.6269  -14.0643 C   0  0  0  0  0  0  0  0  0  0  0  0
  -15.8348   -0.0773  -12.7876 C   0  0  0  0  0  0  0  0  0  0  0  0
  -15.8588   -0.8863  -11.6500 C   0  0  0  0  0  0  0  0  0  0  0  0
  -15.7458   -2.2674  -11.7773 C   0  0  0  0  0  0  0  0  0  0  0  0
  -15.6087   -2.8282  -13.0446 C   0  0  0  0  0  0  0  0  0  0  0  0
  -15.4873   -4.7072  -13.2251 Br  0  0  0  0  0  0  0  0  0  0  0  0
  -15.5660   -2.0194  -14.1821 C   0  0  0  0  0  0  0  0  0  0  0  0
  -21.3533    1.0796  -14.7983 C   0  0  0  0  0  0  0  0  0  0  0  0
  -21.5620    0.6737  -13.3373 C   0  0  0  0  0  0  0  0  0  0  0  0
  -22.7156   -0.2750  -13.1070 C   0  0  0  0  0  0  0  0  0  0  0  0
  -23.6703   -0.4280  -14.1128 C   0  0  0  0  0  0  0  0  0  0  0  0
  -24.7532   -1.2742  -13.8956 C   0  0  0  0  0  0  0  0  0  0  0  0
  -24.8589   -1.9464  -12.6857 C   0  0  0  0  0  0  0  0  0  0  0  0
  -23.8676   -1.7406  -11.7382 C   0  0  0  0  0  0  0  0  0  0  0  0
  -22.8059   -0.9237  -11.9225 N   0  0  0  0  0  0  0  0  0  0  0  0
  1  2  1  0  0  0
  1 11  1  0  0  0
  1 12  1  0  0  0
  2  3  1  0  0  0
  2 10  2  0  0  0
  3  4  2  0  0  0
  4 14  1  0  0  0
  4  5  1  0  0  0
 14 16  1  0  0  0
 14 15  1  0  0  0
 16 17  1  0  0  0
 16 22  2  0  0  0
 17 18  2  0  0  0
 18 19  1  0  0  0
 19 20  2  0  0  0
 20 21  1  0  0  0
 20 22  1  0  0  0
  5  6  1  0  0  0
  5  9  2  0  0  0
  6  7  2  0  0  0
  7 23  1  0  0  0
  7  8  1  0  0  0
 23 24  1  0  0  0
 24 25  1  0  0  0
 25 26  1  0  0  0
 25 30  2  0  0  0
 26 27  2  0  0  0
 27 28  1  0  0  0
 28 29  2  0  0  0
 29 30  1  0  0  0
  8  9  1  0  0  0
  8 13  1  0  0  0
  9 10  1  0  0  0
M  END
> <minimizedAffinity>
-8.63868

$$$$
