CHEMBL1980896


 31 34  0  0  0  0  0  0  0  0999 V2000
  -29.5595   -7.6313   -7.2405 C   0  0  0  0  0  0  0  0  0  0  0  0
  -28.8876   -7.7302   -6.0168 C   0  0  0  0  0  0  0  0  0  0  0  0
  -28.6663   -6.6067   -5.2119 C   0  0  0  0  0  0  0  0  0  0  0  0
  -29.0344   -5.3350   -5.6393 C   0  0  0  0  0  0  0  0  0  0  0  0
  -29.6730   -5.2163   -6.8792 C   0  0  0  0  0  0  0  0  0  0  0  0
  -29.9731   -6.3566   -7.6464 C   0  0  0  0  0  0  0  0  0  0  0  0
  -26.8288   -7.9545   -9.2022 N   0  0  0  0  0  0  0  0  0  0  0  0
  -27.5967   -9.0375   -9.6025 C   0  0  0  0  0  0  0  0  0  0  0  0
  -27.0373   -9.7824  -10.5745 N   0  0  0  0  0  0  0  0  0  0  0  0
  -27.6813  -10.8676  -11.0090 C   0  0  0  0  0  0  0  0  0  0  0  0
  -28.8541  -11.3277  -10.5831 N   0  0  0  0  0  0  0  0  0  0  0  0
  -29.4008  -10.5505   -9.6340 C   0  0  0  0  0  0  0  0  0  0  0  0
  -30.9090  -10.9707   -8.9929 S   0  0  0  0  0  0  0  0  0  0  0  0
  -30.9413   -9.5845   -8.0181 C   0  0  0  0  0  0  0  0  0  0  0  0
  -32.5149   -9.2370   -7.0313 Br  0  0  0  0  0  0  0  0  0  0  0  0
  -29.7780   -8.8256   -8.0781 C   0  0  0  0  0  0  0  0  0  0  0  0
  -28.8636   -9.3920   -9.0840 C   0  0  0  0  0  0  0  0  0  0  0  0
  -25.8999   -8.0351   -9.6014 H   0  0  0  0  0  0  0  0  0  0  0  0
  -26.8490   -7.7849   -8.2044 H   0  0  0  0  0  0  0  0  0  0  0  0
  -28.8007   -4.1670   -4.8880 N   0  0  0  0  0  0  0  0  0  0  0  0
  -29.7192   -3.4901   -4.0918 C   0  0  0  0  0  0  0  0  0  0  0  0
  -30.8717   -3.8416   -3.8535 O   0  0  0  0  0  0  0  0  0  0  0  0
  -27.8821   -3.7486   -4.9856 H   0  0  0  0  0  0  0  0  0  0  0  0
  -29.1928   -2.1769   -3.5567 C   0  0  0  0  0  0  0  0  0  0  0  0
  -28.9894   -1.1712   -4.6653 C   0  0  0  0  0  0  0  0  0  0  0  0
  -27.7358   -1.0558   -5.2941 C   0  0  0  0  0  0  0  0  0  0  0  0
  -27.5114   -0.0669   -6.2502 C   0  0  0  0  0  0  0  0  0  0  0  0
  -28.5348    0.8122   -6.5934 C   0  0  0  0  0  0  0  0  0  0  0  0
  -29.7837    0.6848   -5.9896 C   0  0  0  0  0  0  0  0  0  0  0  0
  -31.0498    1.7763   -6.4129 Cl  0  0  0  0  0  0  0  0  0  0  0  0
  -30.0210   -0.3021   -5.0371 C   0  0  0  0  0  0  0  0  0  0  0  0
  7  8  1  0  0  0
  7 18  1  0  0  0
  7 19  1  0  0  0
  8  9  1  0  0  0
  8 17  2  0  0  0
  9 10  2  0  0  0
 10 11  1  0  0  0
 11 12  2  0  0  0
 12 13  1  0  0  0
 12 17  1  0  0  0
 13 14  1  0  0  0
 14 15  1  0  0  0
 14 16  2  0  0  0
 16  1  1  0  0  0
 16 17  1  0  0  0
  1  2  1  0  0  0
  1  6  2  0  0  0
  2  3  2  0  0  0
  3  4  1  0  0  0
  4 20  1  0  0  0
  4  5  2  0  0  0
 20 21  1  0  0  0
 20 23  1  0  0  0
 21 22  2  0  0  0
 21 24  1  0  0  0
 24 25  1  0  0  0
 25 26  1  0  0  0
 25 31  2  0  0  0
 26 27  2  0  0  0
 27 28  1  0  0  0
 28 29  2  0  0  0
 29 30  1  0  0  0
 29 31  1  0  0  0
  5  6  1  0  0  0
M  END
> <minimizedAffinity>
-9.04674

$$$$
