CHEMBL4789458


 35 39  0  0  0  0  0  0  0  0999 V2000
  -27.4709   -8.2788   -4.9459 C   0  0  0  0  0  0  0  0  0  0  0  0
  -28.2855   -7.2830   -4.6143 N   0  0  0  0  0  0  0  0  0  0  0  0
  -29.2004   -6.9527   -5.5336 C   0  0  0  0  0  0  0  0  0  0  0  0
  -29.3511   -7.6285   -6.7224 C   0  0  0  0  0  0  0  0  0  0  0  0
  -28.5525   -8.7232   -6.9457 C   0  0  0  0  0  0  0  0  0  0  0  0
  -27.5554   -9.0012   -6.0828 N   0  0  0  0  0  0  0  0  0  0  0  0
  -24.7281   -9.4727   -3.0483 O   0  0  0  0  0  0  0  0  0  0  0  0
  -25.3700   -9.3068   -4.0775 C   0  0  0  0  0  0  0  0  0  0  0  0
  -24.9934   -9.6868   -5.3398 N   0  0  0  0  0  0  0  0  0  0  0  0
  -26.5081   -8.5749   -3.9933 N   0  0  0  0  0  0  0  0  0  0  0  0
  -25.6852   -9.5054   -6.0628 H   0  0  0  0  0  0  0  0  0  0  0  0
  -26.6585   -8.1260   -3.0977 H   0  0  0  0  0  0  0  0  0  0  0  0
  -23.7823  -10.2788   -5.7409 C   0  0  0  0  0  0  0  0  0  0  0  0
  -22.8148   -9.6338   -6.5146 C   0  0  0  0  0  0  0  0  0  0  0  0
  -21.6347  -10.2940   -6.8782 C   0  0  0  0  0  0  0  0  0  0  0  0
  -21.4136  -11.6082   -6.4758 C   0  0  0  0  0  0  0  0  0  0  0  0
  -22.3765  -12.2682   -5.7181 C   0  0  0  0  0  0  0  0  0  0  0  0
  -23.5545  -11.6065   -5.3541 C   0  0  0  0  0  0  0  0  0  0  0  0
  -28.7060   -9.4913   -8.0936 N   0  0  0  0  0  0  0  0  0  0  0  0
  -30.0779   -9.8342   -8.5157 C   0  0  0  0  0  0  0  0  0  0  0  0
  -29.9973  -11.0817   -9.4141 C   0  0  0  0  0  0  0  0  0  0  0  0
  -29.1527  -10.8621  -10.5585 O   0  0  0  0  0  0  0  0  0  0  0  0
  -27.8272  -10.4919  -10.1466 C   0  0  0  0  0  0  0  0  0  0  0  0
  -27.8442   -9.2308   -9.2680 C   0  0  0  0  0  0  0  0  0  0  0  0
  -30.3484   -5.6321   -5.1428 S   0  0  0  0  0  0  0  0  0  0  0  0
  -29.1920   -4.3181   -5.1235 C   0  0  0  0  0  0  0  0  0  0  0  0
  -28.8687   -3.5764   -4.0115 C   0  0  0  0  0  0  0  0  0  0  0  0
  -27.9816   -2.6214   -4.4258 N   0  0  0  0  0  0  0  0  0  0  0  0
  -28.0869   -2.4806   -5.7912 C   0  0  0  0  0  0  0  0  0  0  0  0
  -27.7518   -1.4160   -6.6317 C   0  0  0  0  0  0  0  0  0  0  0  0
  -27.8994   -1.6200   -8.0061 C   0  0  0  0  0  0  0  0  0  0  0  0
  -28.2512   -2.8707   -8.5124 C   0  0  0  0  0  0  0  0  0  0  0  0
  -28.6046   -3.9178   -7.6524 C   0  0  0  0  0  0  0  0  0  0  0  0
  -28.6222   -3.6799   -6.2635 C   0  0  0  0  0  0  0  0  0  0  0  0
  -27.4110   -2.0451   -3.8226 H   0  0  0  0  0  0  0  0  0  0  0  0
  7  8  2  0  0  0
  8  9  1  0  0  0
  8 10  1  0  0  0
  9 13  1  0  0  0
  9 11  1  0  0  0
 13 14  1  0  0  0
 13 18  2  0  0  0
 14 15  2  0  0  0
 15 16  1  0  0  0
 16 17  2  0  0  0
 17 18  1  0  0  0
 10  1  1  0  0  0
 10 12  1  0  0  0
  1  2  1  0  0  0
  1  6  2  0  0  0
  2  3  2  0  0  0
  3 25  1  0  0  0
  3  4  1  0  0  0
 25 26  1  0  0  0
 26 27  2  0  0  0
 26 34  1  0  0  0
 27 28  1  0  0  0
 28 29  1  0  0  0
 28 35  1  0  0  0
 29 30  1  0  0  0
 29 34  2  0  0  0
 30 31  2  0  0  0
 31 32  1  0  0  0
 32 33  2  0  0  0
 33 34  1  0  0  0
  4  5  2  0  0  0
  5 19  1  0  0  0
  5  6  1  0  0  0
 19 20  1  0  0  0
 19 24  1  0  0  0
 20 21  1  0  0  0
 21 22  1  0  0  0
 22 23  1  0  0  0
 23 24  1  0  0  0
M  END
> <minimizedAffinity>
-9.32794

$$$$
