CHEMBL1076466


 47 51  0  0  0  0  0  0  0  0999 V2000
  -29.1781   -8.2408   -7.2902 C   0  0  0  0  0  0  0  0  0  0  0  0
  -30.2241   -8.3980   -8.0937 N   0  0  0  0  0  0  0  0  0  0  0  0
  -30.8614   -9.4824   -7.5360 C   0  0  0  0  0  0  0  0  0  0  0  0
  -32.1963   -9.8815   -7.6086 C   0  0  0  0  0  0  0  0  0  0  0  0
  -32.6233  -10.9291   -6.7771 C   0  0  0  0  0  0  0  0  0  0  0  0
  -31.7224  -11.6068   -5.9503 C   0  0  0  0  0  0  0  0  0  0  0  0
  -30.3622  -11.2815   -5.9347 C   0  0  0  0  0  0  0  0  0  0  0  0
  -29.9743  -10.1964   -6.7292 C   0  0  0  0  0  0  0  0  0  0  0  0
  -28.7727   -9.5315   -6.9418 N   0  0  0  0  0  0  0  0  0  0  0  0
  -27.4839  -10.1162   -7.0617 C   0  0  0  0  0  0  0  0  0  0  0  0
  -26.6460  -10.0658   -5.9566 C   0  0  0  0  0  0  0  0  0  0  0  0
  -25.3854  -10.6228   -6.0660 C   0  0  0  0  0  0  0  0  0  0  0  0
  -24.9758  -11.1704   -7.2169 N   0  0  0  0  0  0  0  0  0  0  0  0
  -25.8694  -11.2040   -8.2249 C   0  0  0  0  0  0  0  0  0  0  0  0
  -27.1299  -10.7419   -8.1990 N   0  0  0  0  0  0  0  0  0  0  0  0
  -24.5459  -10.5494   -4.9432 N   0  0  0  0  0  0  0  0  0  0  0  0
  -25.0813  -10.3224   -4.1113 H   0  0  0  0  0  0  0  0  0  0  0  0
  -23.5870  -11.6330   -4.7595 C   0  0  0  0  0  0  0  0  0  0  0  0
  -22.1487  -11.1046   -4.8399 C   0  0  0  0  0  0  0  0  0  0  0  0
  -21.4412  -11.5311   -6.1350 C   0  0  0  0  0  0  0  0  0  0  0  0
  -21.5285  -10.4816   -7.2447 C   0  0  0  0  0  0  0  0  0  0  0  0
  -20.4394   -9.5165   -7.1668 N   0  0  0  0  0  0  0  0  0  0  0  0
  -20.4767   -9.0242   -6.2750 H   0  0  0  0  0  0  0  0  0  0  0  0
  -20.5632   -8.8063   -7.8881 H   0  0  0  0  0  0  0  0  0  0  0  0
  -29.2330   -7.2287   -6.3800 N   0  0  0  0  0  0  0  0  0  0  0  0
  -30.0806   -7.3493   -5.8226 H   0  0  0  0  0  0  0  0  0  0  0  0
  -30.2631   -5.5971   -4.2881 C   0  0  0  0  0  0  0  0  0  0  0  0
  -29.6862   -5.0170   -5.5518 C   0  0  0  0  0  0  0  0  0  0  0  0
  -29.7773   -3.6398   -5.7702 C   0  0  0  0  0  0  0  0  0  0  0  0
  -29.2515   -3.0748   -6.9283 C   0  0  0  0  0  0  0  0  0  0  0  0
  -28.6127   -3.8645   -7.8876 C   0  0  0  0  0  0  0  0  0  0  0  0
  -28.5274   -5.2516   -7.6772 C   0  0  0  0  0  0  0  0  0  0  0  0
  -29.0669   -5.8316   -6.5294 C   0  0  0  0  0  0  0  0  0  0  0  0
  -28.0644   -3.3393   -9.0811 N   0  0  0  0  0  0  0  0  0  0  0  0
  -27.3661   -2.1475   -9.2111 C   0  0  0  0  0  0  0  0  0  0  0  0
  -27.1426   -1.3315   -8.3270 O   0  0  0  0  0  0  0  0  0  0  0  0
  -28.2533   -3.8725   -9.9187 H   0  0  0  0  0  0  0  0  0  0  0  0
  -26.8672   -1.8164  -10.5740 C   0  0  0  0  0  0  0  0  0  0  0  0
  -27.6994   -1.7814  -11.6964 C   0  0  0  0  0  0  0  0  0  0  0  0
  -27.1562   -1.5235  -12.9579 C   0  0  0  0  0  0  0  0  0  0  0  0
  -25.7825   -1.2919  -13.1021 C   0  0  0  0  0  0  0  0  0  0  0  0
  -24.9334   -1.3193  -11.9850 C   0  0  0  0  0  0  0  0  0  0  0  0
  -25.4885   -1.5949  -10.7272 C   0  0  0  0  0  0  0  0  0  0  0  0
  -23.4544   -1.0499  -12.1131 C   0  0  0  0  0  0  0  0  0  0  0  0
  -23.0960    0.2067  -11.7271 F   0  0  0  0  0  0  0  0  0  0  0  0
  -22.7081   -1.8977  -11.3538 F   0  0  0  0  0  0  0  0  0  0  0  0
  -23.0031   -1.1911  -13.3897 F   0  0  0  0  0  0  0  0  0  0  0  0
 27 28  1  0  0  0
 28 29  1  0  0  0
 28 33  2  0  0  0
 29 30  2  0  0  0
 30 31  1  0  0  0
 31 34  1  0  0  0
 31 32  2  0  0  0
 34 35  1  0  0  0
 34 37  1  0  0  0
 35 36  2  0  0  0
 35 38  1  0  0  0
 38 39  1  0  0  0
 38 43  2  0  0  0
 39 40  2  0  0  0
 40 41  1  0  0  0
 41 42  2  0  0  0
 42 44  1  0  0  0
 42 43  1  0  0  0
 44 45  1  0  0  0
 44 46  1  0  0  0
 44 47  1  0  0  0
 32 33  1  0  0  0
 33 25  1  0  0  0
 25  1  1  0  0  0
 25 26  1  0  0  0
  1  2  2  0  0  0
  1  9  1  0  0  0
  2  3  1  0  0  0
  3  4  1  0  0  0
  3  8  2  0  0  0
  4  5  2  0  0  0
  5  6  1  0  0  0
  6  7  2  0  0  0
  7  8  1  0  0  0
  8  9  1  0  0  0
  9 10  1  0  0  0
 10 11  1  0  0  0
 10 15  2  0  0  0
 11 12  2  0  0  0
 12 16  1  0  0  0
 12 13  1  0  0  0
 16 18  1  0  0  0
 16 17  1  0  0  0
 18 19  1  0  0  0
 19 20  1  0  0  0
 20 21  1  0  0  0
 21 22  1  0  0  0
 22 23  1  0  0  0
 22 24  1  0  0  0
 13 14  2  0  0  0
 14 15  1  0  0  0
M  END
> <minimizedAffinity>
-10.65466

$$$$
