CHEMBL4549604


 33 36  0  0  0  0  0  0  0  0999 V2000
  -27.8042   -1.9791   -8.9296 C   0  0  0  0  0  0  0  0  0  0  0  0
  -27.6173   -1.2365   -7.7569 C   0  0  0  0  0  0  0  0  0  0  0  0
  -28.1435   -1.7008   -6.5488 C   0  0  0  0  0  0  0  0  0  0  0  0
  -28.8596   -2.8987   -6.5085 C   0  0  0  0  0  0  0  0  0  0  0  0
  -29.0206   -3.6535   -7.6675 C   0  0  0  0  0  0  0  0  0  0  0  0
  -28.4890   -3.2036   -8.8732 C   0  0  0  0  0  0  0  0  0  0  0  0
  -25.8943   -1.6349  -10.4141 N   0  0  0  0  0  0  0  0  0  0  0  0
  -27.2678   -1.5521  -10.2525 C   0  0  0  0  0  0  0  0  0  0  0  0
  -28.0738   -1.1417  -11.0809 O   0  0  0  0  0  0  0  0  0  0  0  0
  -25.3155   -1.9419   -9.6441 H   0  0  0  0  0  0  0  0  0  0  0  0
  -23.8715   -0.3191  -13.0571 N   0  0  0  0  0  0  0  0  0  0  0  0
  -24.1716   -0.4131  -11.7164 C   0  0  0  0  0  0  0  0  0  0  0  0
  -25.2264   -1.2786  -11.5772 C   0  0  0  0  0  0  0  0  0  0  0  0
  -25.4728   -1.7164  -12.8934 C   0  0  0  0  0  0  0  0  0  0  0  0
  -24.6664   -1.1452  -13.7924 N   0  0  0  0  0  0  0  0  0  0  0  0
  -19.8911    3.1253  -15.3489 C   0  0  0  0  0  0  0  0  0  0  0  0
  -20.9504    2.2235  -14.7868 C   0  0  0  0  0  0  0  0  0  0  0  0
  -20.8103    0.8352  -14.8578 C   0  0  0  0  0  0  0  0  0  0  0  0
  -21.7784   -0.0058  -14.3033 C   0  0  0  0  0  0  0  0  0  0  0  0
  -22.9053    0.5321  -13.6654 C   0  0  0  0  0  0  0  0  0  0  0  0
  -23.0577    1.9236  -13.6069 C   0  0  0  0  0  0  0  0  0  0  0  0
  -22.0813    2.7610  -14.1594 C   0  0  0  0  0  0  0  0  0  0  0  0
  -29.7506   -4.8700   -7.6055 N   0  0  0  0  0  0  0  0  0  0  0  0
  -30.6603   -4.8607   -7.1472 H   0  0  0  0  0  0  0  0  0  0  0  0
  -28.9130   -6.3198   -7.3605 S   0  0  0  0  0  0  0  0  0  0  0  0
  -27.9762   -6.4440   -8.4569 O   0  0  0  0  0  0  0  0  0  0  0  0
  -28.4763   -6.3767   -5.9815 O   0  0  0  0  0  0  0  0  0  0  0  0
  -30.1616   -7.5631   -7.6048 C   0  0  0  0  0  0  0  0  0  0  0  0
  -31.4282   -7.3718   -7.0397 C   0  0  0  0  0  0  0  0  0  0  0  0
  -32.4000   -8.3615   -7.1826 C   0  0  0  0  0  0  0  0  0  0  0  0
  -32.1142   -9.5199   -7.9068 C   0  0  0  0  0  0  0  0  0  0  0  0
  -30.8608   -9.6893   -8.4990 C   0  0  0  0  0  0  0  0  0  0  0  0
  -29.8778   -8.7101   -8.3504 C   0  0  0  0  0  0  0  0  0  0  0  0
 16 17  1  0  0  0
 17 18  1  0  0  0
 17 22  2  0  0  0
 18 19  2  0  0  0
 19 20  1  0  0  0
 20 11  1  0  0  0
 20 21  2  0  0  0
 11 12  1  0  0  0
 11 15  1  0  0  0
 12 13  2  0  0  0
 13  7  1  0  0  0
 13 14  1  0  0  0
  7  8  1  0  0  0
  7 10  1  0  0  0
  8  9  2  0  0  0
  8  1  1  0  0  0
  1  2  1  0  0  0
  1  6  2  0  0  0
  2  3  2  0  0  0
  3  4  1  0  0  0
  4  5  2  0  0  0
  5 23  1  0  0  0
  5  6  1  0  0  0
 23 25  1  0  0  0
 23 24  1  0  0  0
 25 26  2  0  0  0
 25 27  2  0  0  0
 25 28  1  0  0  0
 28 29  1  0  0  0
 28 33  2  0  0  0
 29 30  2  0  0  0
 30 31  1  0  0  0
 31 32  2  0  0  0
 32 33  1  0  0  0
 14 15  2  0  0  0
 21 22  1  0  0  0
M  END
> <minimizedAffinity>
-11.03976

$$$$
