CHEMBL379001


 31 34  0  0  0  0  0  0  0  0999 V2000
  -14.6984   -3.2780  -11.5027 C   0  0  0  0  0  0  0  0  0  0  0  0
  -15.2956   -4.1721  -12.4092 C   0  0  0  0  0  0  0  0  0  0  0  0
  -15.1694   -5.5591  -12.2496 C   0  0  0  0  0  0  0  0  0  0  0  0
  -14.3544   -6.0532  -11.2363 C   0  0  0  0  0  0  0  0  0  0  0  0
  -13.6857   -5.1644  -10.3915 C   0  0  0  0  0  0  0  0  0  0  0  0
  -13.8455   -3.7769  -10.5089 C   0  0  0  0  0  0  0  0  0  0  0  0
  -14.1504   -7.4395  -11.1068 N   0  0  0  0  0  0  0  0  0  0  0  0
  -13.6971   -8.2623  -12.1529 C   0  0  0  0  0  0  0  0  0  0  0  0
  -12.7575   -9.1315  -11.7375 N   0  0  0  0  0  0  0  0  0  0  0  0
  -12.1670   -9.8616  -12.6852 C   0  0  0  0  0  0  0  0  0  0  0  0
  -12.4340   -9.8240  -13.9934 N   0  0  0  0  0  0  0  0  0  0  0  0
  -13.4078   -8.9924  -14.3874 C   0  0  0  0  0  0  0  0  0  0  0  0
  -14.1077   -8.1516  -13.4913 C   0  0  0  0  0  0  0  0  0  0  0  0
  -15.0872   -7.2613  -14.0158 N   0  0  0  0  0  0  0  0  0  0  0  0
  -15.9423   -6.5280  -13.0958 C   0  0  0  0  0  0  0  0  0  0  0  0
  -13.6151   -7.7019  -10.2827 H   0  0  0  0  0  0  0  0  0  0  0  0
  -14.6373   -6.6331  -14.6764 H   0  0  0  0  0  0  0  0  0  0  0  0
  -15.5234   -1.5040  -12.8271 C   0  0  0  0  0  0  0  0  0  0  0  0
  -14.9369   -1.9330  -11.5954 O   0  0  0  0  0  0  0  0  0  0  0  0
  -13.1152   -3.1058   -9.5660 O   0  0  0  0  0  0  0  0  0  0  0  0
  -11.9172   -3.6758   -9.0679 C   0  0  0  0  0  0  0  0  0  0  0  0
  -13.8179   -9.0428  -15.7341 N   0  0  0  0  0  0  0  0  0  0  0  0
  -14.4113   -8.2649  -15.9897 H   0  0  0  0  0  0  0  0  0  0  0  0
  -12.8232   -9.4267  -16.7400 C   0  0  0  0  0  0  0  0  0  0  0  0
  -12.0270   -8.1756  -17.1450 C   0  0  0  0  0  0  0  0  0  0  0  0
  -13.5041  -10.1097  -17.9320 C   0  0  0  0  0  0  0  0  0  0  0  0
  -13.3031   -9.6583  -19.2497 C   0  0  0  0  0  0  0  0  0  0  0  0
  -13.8777  -10.3190  -20.3398 C   0  0  0  0  0  0  0  0  0  0  0  0
  -14.6527  -11.4567  -20.1370 C   0  0  0  0  0  0  0  0  0  0  0  0
  -14.8448  -11.9381  -18.8465 C   0  0  0  0  0  0  0  0  0  0  0  0
  -14.2697  -11.2769  -17.7565 C   0  0  0  0  0  0  0  0  0  0  0  0
 18 19  1  0  0  0
 19  1  1  0  0  0
  1  2  1  0  0  0
  1  6  2  0  0  0
  2  3  2  0  0  0
  3  4  1  0  0  0
  3 15  1  0  0  0
  4  5  2  0  0  0
  4  7  1  0  0  0
  5  6  1  0  0  0
  6 20  1  0  0  0
 20 21  1  0  0  0
  7  8  1  0  0  0
  7 16  1  0  0  0
  8  9  1  0  0  0
  8 13  2  0  0  0
  9 10  2  0  0  0
 10 11  1  0  0  0
 11 12  2  0  0  0
 12 22  1  0  0  0
 12 13  1  0  0  0
 22 23  1  0  0  0
 24 26  1  0  0  0
 24 25  1  0  0  0
 24 22  1  0  0  0
 26 27  1  0  0  0
 26 31  2  0  0  0
 27 28  2  0  0  0
 28 29  1  0  0  0
 29 30  2  0  0  0
 30 31  1  0  0  0
 13 14  1  0  0  0
 14 15  1  0  0  0
 14 17  1  0  0  0
M  END
> <minimizedAffinity>
-7.74358

$$$$
