CHEMBL3970862


 36 39  0  0  0  0  0  0  0  0999 V2000
  -29.9829   -6.1253   -4.5863 C   0  0  0  0  0  0  0  0  0  0  0  0
  -30.8318   -6.8363   -5.4233 C   0  0  0  0  0  0  0  0  0  0  0  0
  -30.2929   -7.8317   -6.2400 C   0  0  0  0  0  0  0  0  0  0  0  0
  -28.9354   -8.1343   -6.1543 C   0  0  0  0  0  0  0  0  0  0  0  0
  -28.1586   -7.3528   -5.3172 C   0  0  0  0  0  0  0  0  0  0  0  0
  -28.6491   -6.3528   -4.5473 N   0  0  0  0  0  0  0  0  0  0  0  0
  -30.8063   -3.1463   -2.8173 O   0  0  0  0  0  0  0  0  0  0  0  0
  -30.2530   -3.8137   -3.6889 C   0  0  0  0  0  0  0  0  0  0  0  0
  -29.4000   -3.3432   -4.6471 N   0  0  0  0  0  0  0  0  0  0  0  0
  -30.5403   -5.1532   -3.7520 N   0  0  0  0  0  0  0  0  0  0  0  0
  -29.1206   -4.0501   -5.3238 H   0  0  0  0  0  0  0  0  0  0  0  0
  -31.2263   -5.4370   -3.0678 H   0  0  0  0  0  0  0  0  0  0  0  0
  -28.9290   -2.0409   -4.8510 C   0  0  0  0  0  0  0  0  0  0  0  0
  -27.5971   -1.6679   -4.6893 C   0  0  0  0  0  0  0  0  0  0  0  0
  -27.2072   -0.3451   -4.9056 C   0  0  0  0  0  0  0  0  0  0  0  0
  -28.1481    0.6141   -5.2805 C   0  0  0  0  0  0  0  0  0  0  0  0
  -29.4901    0.2559   -5.4610 C   0  0  0  0  0  0  0  0  0  0  0  0
  -29.8675   -1.0803   -5.2492 C   0  0  0  0  0  0  0  0  0  0  0  0
  -30.5245    1.2707   -5.8741 C   0  0  0  0  0  0  0  0  0  0  0  0
  -30.9122    2.0994   -4.8648 F   0  0  0  0  0  0  0  0  0  0  0  0
  -30.0846    2.0843   -6.8746 F   0  0  0  0  0  0  0  0  0  0  0  0
  -31.6669    0.6938   -6.3413 F   0  0  0  0  0  0  0  0  0  0  0  0
  -28.2995   -9.1166   -6.8711 O   0  0  0  0  0  0  0  0  0  0  0  0
  -27.6471  -10.1234   -6.1938 C   0  0  0  0  0  0  0  0  0  0  0  0
  -28.2385  -10.8888   -5.1934 C   0  0  0  0  0  0  0  0  0  0  0  0
  -27.4908  -11.9016   -4.6398 C   0  0  0  0  0  0  0  0  0  0  0  0
  -26.2150  -12.1445   -4.9813 N   0  0  0  0  0  0  0  0  0  0  0  0
  -25.6210  -11.3583   -5.8935 C   0  0  0  0  0  0  0  0  0  0  0  0
  -26.3064  -10.3280   -6.5244 C   0  0  0  0  0  0  0  0  0  0  0  0
  -24.2722  -11.5707   -6.2214 N   0  0  0  0  0  0  0  0  0  0  0  0
  -23.2217  -10.9883   -5.5421 C   0  0  0  0  0  0  0  0  0  0  0  0
  -23.2789  -10.2523   -4.5684 O   0  0  0  0  0  0  0  0  0  0  0  0
  -24.0706  -12.1640   -7.0053 H   0  0  0  0  0  0  0  0  0  0  0  0
  -21.8795  -11.3064   -6.1208 C   0  0  0  0  0  0  0  0  0  0  0  0
  -21.2702  -10.3879   -7.1614 C   0  0  0  0  0  0  0  0  0  0  0  0
  -21.7975  -11.7318   -7.5702 C   0  0  0  0  0  0  0  0  0  0  0  0
  7  8  2  0  0  0
  8  9  1  0  0  0
  8 10  1  0  0  0
  9 13  1  0  0  0
  9 11  1  0  0  0
 13 14  1  0  0  0
 13 18  2  0  0  0
 14 15  2  0  0  0
 15 16  1  0  0  0
 16 17  2  0  0  0
 17 19  1  0  0  0
 17 18  1  0  0  0
 19 20  1  0  0  0
 19 21  1  0  0  0
 19 22  1  0  0  0
 10  1  1  0  0  0
 10 12  1  0  0  0
  1  2  1  0  0  0
  1  6  2  0  0  0
  2  3  2  0  0  0
  3  4  1  0  0  0
  4 23  1  0  0  0
  4  5  2  0  0  0
 23 24  1  0  0  0
 24 25  1  0  0  0
 24 29  2  0  0  0
 25 26  2  0  0  0
 26 27  1  0  0  0
 27 28  2  0  0  0
 28 30  1  0  0  0
 28 29  1  0  0  0
 30 31  1  0  0  0
 30 33  1  0  0  0
 31 32  2  0  0  0
 31 34  1  0  0  0
 34 35  1  0  0  0
 34 36  1  0  0  0
 35 36  1  0  0  0
  5  6  1  0  0  0
M  END
> <minimizedAffinity>
-9.14562

$$$$
