CHEMBL3780515


 30 34  0  0  0  0  0  0  0  0999 V2000
  -12.7038   -1.7489  -13.3835 C   0  0  0  0  0  0  0  0  0  0  0  0
  -13.5279   -1.6665  -14.5000 C   0  0  0  0  0  0  0  0  0  0  0  0
  -13.9423   -0.4950  -15.0339 N   0  0  0  0  0  0  0  0  0  0  0  0
  -13.4498    0.6412  -14.4530 C   0  0  0  0  0  0  0  0  0  0  0  0
  -13.7600    1.9297  -14.8968 C   0  0  0  0  0  0  0  0  0  0  0  0
  -13.1489    3.0421  -14.4173 N   0  0  0  0  0  0  0  0  0  0  0  0
  -12.3072    2.9103  -13.3900 C   0  0  0  0  0  0  0  0  0  0  0  0
  -12.0514    1.7043  -12.7897 C   0  0  0  0  0  0  0  0  0  0  0  0
  -12.5912    0.5554  -13.3380 C   0  0  0  0  0  0  0  0  0  0  0  0
  -12.2568   -0.6152  -12.7846 N   0  0  0  0  0  0  0  0  0  0  0  0
  -11.3950   -5.4624  -11.6923 C   0  0  0  0  0  0  0  0  0  0  0  0
  -11.0959   -4.2555  -11.0510 C   0  0  0  0  0  0  0  0  0  0  0  0
  -11.5066   -3.0524  -11.6091 C   0  0  0  0  0  0  0  0  0  0  0  0
  -12.2278   -3.0093  -12.8164 C   0  0  0  0  0  0  0  0  0  0  0  0
  -12.5143   -4.2408  -13.4453 C   0  0  0  0  0  0  0  0  0  0  0  0
  -12.1022   -5.4459  -12.8918 C   0  0  0  0  0  0  0  0  0  0  0  0
  -14.7916    2.0834  -15.8541 N   0  0  0  0  0  0  0  0  0  0  0  0
  -14.4802    2.6012  -16.6690 H   0  0  0  0  0  0  0  0  0  0  0  0
  -16.1735    2.0191  -15.6695 C   0  0  0  0  0  0  0  0  0  0  0  0
  -16.8185    0.8641  -15.2228 C   0  0  0  0  0  0  0  0  0  0  0  0
  -18.2040    0.8243  -15.0567 C   0  0  0  0  0  0  0  0  0  0  0  0
  -18.9990    1.9189  -15.3803 C   0  0  0  0  0  0  0  0  0  0  0  0
  -18.3514    3.0724  -15.8459 C   0  0  0  0  0  0  0  0  0  0  0  0
  -16.9632    3.1248  -15.9818 C   0  0  0  0  0  0  0  0  0  0  0  0
  -20.3745    1.8920  -15.2820 N   0  0  0  0  0  0  0  0  0  0  0  0
  -21.1916    3.1074  -15.2419 C   0  0  0  0  0  0  0  0  0  0  0  0
  -21.9904    3.1888  -13.9357 C   0  0  0  0  0  0  0  0  0  0  0  0
  -22.7440    1.9866  -13.6968 O   0  0  0  0  0  0  0  0  0  0  0  0
  -21.8575    0.8580  -13.6083 C   0  0  0  0  0  0  0  0  0  0  0  0
  -21.0701    0.6509  -14.9119 C   0  0  0  0  0  0  0  0  0  0  0  0
 11 12  1  0  0  0
 11 16  2  0  0  0
 12 13  2  0  0  0
 13 14  1  0  0  0
 14  1  1  0  0  0
 14 15  2  0  0  0
  1  2  1  0  0  0
  1 10  2  0  0  0
  2  3  2  0  0  0
  3  4  1  0  0  0
  4  5  1  0  0  0
  4  9  2  0  0  0
  5 17  1  0  0  0
  5  6  2  0  0  0
 17 19  1  0  0  0
 17 18  1  0  0  0
 19 20  1  0  0  0
 19 24  2  0  0  0
 20 21  2  0  0  0
 21 22  1  0  0  0
 22 25  1  0  0  0
 22 23  2  0  0  0
 25 26  1  0  0  0
 25 30  1  0  0  0
 26 27  1  0  0  0
 27 28  1  0  0  0
 28 29  1  0  0  0
 29 30  1  0  0  0
 23 24  1  0  0  0
  6  7  1  0  0  0
  7  8  2  0  0  0
  8  9  1  0  0  0
  9 10  1  0  0  0
 15 16  1  0  0  0
M  END
> <minimizedAffinity>
-7.39428

$$$$
