CHEMBL431073


 19 21  0  0  0  0  0  0  0  0999 V2000
  -21.9568    1.1335  -14.0133 C   0  0  0  0  0  0  0  0  0  0  0  0
  -22.0988    2.4943  -13.8356 C   0  0  0  0  0  0  0  0  0  0  0  0
  -21.1542    3.2835  -14.4409 N   0  0  0  0  0  0  0  0  0  0  0  0
  -20.2907    2.5518  -15.1091 C   0  0  0  0  0  0  0  0  0  0  0  0
  -20.5579    0.8520  -14.9719 S   0  0  0  0  0  0  0  0  0  0  0  0
  -24.5482   -1.9691  -12.6152 C   0  0  0  0  0  0  0  0  0  0  0  0
  -24.6846   -1.4677  -13.9048 C   0  0  0  0  0  0  0  0  0  0  0  0
  -23.8216   -0.4670  -14.3573 C   0  0  0  0  0  0  0  0  0  0  0  0
  -22.8157    0.0512  -13.5245 C   0  0  0  0  0  0  0  0  0  0  0  0
  -22.6939   -0.4666  -12.2282 C   0  0  0  0  0  0  0  0  0  0  0  0
  -23.5526   -1.4710  -11.7773 C   0  0  0  0  0  0  0  0  0  0  0  0
  -19.2822    3.0199  -15.8776 N   0  0  0  0  0  0  0  0  0  0  0  0
  -19.3541    3.9587  -16.2502 H   0  0  0  0  0  0  0  0  0  0  0  0
  -17.9336    2.6730  -15.7419 C   0  0  0  0  0  0  0  0  0  0  0  0
  -17.5064    1.4401  -15.2823 C   0  0  0  0  0  0  0  0  0  0  0  0
  -16.1556    1.2694  -15.1008 C   0  0  0  0  0  0  0  0  0  0  0  0
  -15.2503    2.2159  -15.3841 N   0  0  0  0  0  0  0  0  0  0  0  0
  -15.7537    3.3572  -15.8717 C   0  0  0  0  0  0  0  0  0  0  0  0
  -17.0529    3.6368  -16.0698 N   0  0  0  0  0  0  0  0  0  0  0  0
  6  7  1  0  0  0
  6 11  2  0  0  0
  7  8  2  0  0  0
  8  9  1  0  0  0
  9  1  1  0  0  0
  9 10  2  0  0  0
  1  2  2  0  0  0
  1  5  1  0  0  0
  2  3  1  0  0  0
  3  4  2  0  0  0
  4 12  1  0  0  0
  4  5  1  0  0  0
 12 14  1  0  0  0
 12 13  1  0  0  0
 14 15  1  0  0  0
 14 19  2  0  0  0
 15 16  2  0  0  0
 16 17  1  0  0  0
 17 18  2  0  0  0
 18 19  1  0  0  0
 10 11  1  0  0  0
M  END
> <minimizedAffinity>
-7.88185

$$$$
