CHEMBL3918495


 34 38  0  0  0  0  0  0  0  0999 V2000
  -27.7421   -2.3857   -8.0707 N   0  0  0  0  0  0  0  0  0  0  0  0
  -27.3281   -1.7856   -9.3203 C   0  0  0  0  0  0  0  0  0  0  0  0
  -28.2461   -1.9590  -10.3545 C   0  0  0  0  0  0  0  0  0  0  0  0
  -27.8373   -1.9278  -11.6693 C   0  0  0  0  0  0  0  0  0  0  0  0
  -26.5597   -1.5834  -12.0145 C   0  0  0  0  0  0  0  0  0  0  0  0
  -26.3143   -1.7848  -13.3171 N   0  0  0  0  0  0  0  0  0  0  0  0
  -25.1439   -1.3278  -13.7770 C   0  0  0  0  0  0  0  0  0  0  0  0
  -24.2711   -0.5910  -12.9895 C   0  0  0  0  0  0  0  0  0  0  0  0
  -24.4768   -0.4831  -11.6256 N   0  0  0  0  0  0  0  0  0  0  0  0
  -25.6441   -1.0539  -11.0810 C   0  0  0  0  0  0  0  0  0  0  0  0
  -26.0627   -1.2272   -9.6835 C   0  0  0  0  0  0  0  0  0  0  0  0
  -23.2530    0.1403  -13.7305 C   0  0  0  0  0  0  0  0  0  0  0  0
  -22.0433   -0.3371  -14.3065 C   0  0  0  0  0  0  0  0  0  0  0  0
  -21.2006    0.6461  -14.6519 N   0  0  0  0  0  0  0  0  0  0  0  0
  -21.8550    1.7599  -14.2849 N   0  0  0  0  0  0  0  0  0  0  0  0
  -21.3936    3.0600  -14.7151 C   0  0  0  0  0  0  0  0  0  0  0  0
  -22.9994    1.4959  -13.5805 C   0  0  0  0  0  0  0  0  0  0  0  0
  -28.4520   -6.0775   -8.0973 C   0  0  0  0  0  0  0  0  0  0  0  0
  -29.4887   -6.1705   -7.1697 C   0  0  0  0  0  0  0  0  0  0  0  0
  -30.0051   -5.0166   -6.5854 C   0  0  0  0  0  0  0  0  0  0  0  0
  -29.4759   -3.7625   -6.9309 C   0  0  0  0  0  0  0  0  0  0  0  0
  -28.4278   -3.6182   -7.8550 C   0  0  0  0  0  0  0  0  0  0  0  0
  -27.9436   -4.8062   -8.4491 C   0  0  0  0  0  0  0  0  0  0  0  0
  -28.5347   -8.4099   -8.6273 C   0  0  0  0  0  0  0  0  0  0  0  0
  -27.8443   -7.1593   -8.6879 O   0  0  0  0  0  0  0  0  0  0  0  0
  -30.9983   -4.9836   -5.6410 O   0  0  0  0  0  0  0  0  0  0  0  0
  -30.9099   -5.9294   -4.5797 C   0  0  0  0  0  0  0  0  0  0  0  0
  -28.1076   -1.2581   -7.1189 C   0  0  0  0  0  0  0  0  0  0  0  0
  -27.5749   -1.2294   -5.6526 C   0  0  0  0  0  0  0  0  0  0  0  0
  -28.4812   -0.9579   -4.5074 N   0  0  0  0  0  0  0  0  0  0  0  0
  -29.2038   -0.2943   -4.7852 H   0  0  0  0  0  0  0  0  0  0  0  0
  -29.1204   -2.2248   -4.0560 C   0  0  0  0  0  0  0  0  0  0  0  0
  -29.0031   -2.7080   -2.6372 C   0  0  0  0  0  0  0  0  0  0  0  0
  -28.2519   -3.4029   -3.7200 C   0  0  0  0  0  0  0  0  0  0  0  0
 24 25  1  0  0  0
 25 18  1  0  0  0
 18 19  1  0  0  0
 18 23  2  0  0  0
 19 20  2  0  0  0
 20 26  1  0  0  0
 20 21  1  0  0  0
 26 27  1  0  0  0
 21 22  2  0  0  0
 22  1  1  0  0  0
 22 23  1  0  0  0
  1 28  1  0  0  0
  1  2  1  0  0  0
 28 29  1  0  0  0
 29 30  1  0  0  0
 30 32  1  0  0  0
 30 31  1  0  0  0
 32 33  1  0  0  0
 32 34  1  0  0  0
 33 34  1  0  0  0
  2  3  1  0  0  0
  2 11  2  0  0  0
  3  4  2  0  0  0
  4  5  1  0  0  0
  5  6  1  0  0  0
  5 10  2  0  0  0
  6  7  2  0  0  0
  7  8  1  0  0  0
  8 12  1  0  0  0
  8  9  2  0  0  0
 12 13  1  0  0  0
 12 17  2  0  0  0
 13 14  2  0  0  0
 14 15  1  0  0  0
 15 16  1  0  0  0
 15 17  1  0  0  0
  9 10  1  0  0  0
 10 11  1  0  0  0
M  END
> <minimizedAffinity>
-7.65332

$$$$
