CHEMBL3907047


 39 42  0  0  0  0  0  0  0  0999 V2000
  -29.5178   -6.6973   -6.2410 N   0  0  0  0  0  0  0  0  0  0  0  0
  -28.7450   -5.5412   -6.6404 C   0  0  0  0  0  0  0  0  0  0  0  0
  -28.7230   -4.5189   -5.6933 C   0  0  0  0  0  0  0  0  0  0  0  0
  -28.5138   -3.2117   -6.0894 C   0  0  0  0  0  0  0  0  0  0  0  0
  -28.1914   -2.8858   -7.3812 C   0  0  0  0  0  0  0  0  0  0  0  0
  -28.1889   -1.5755   -7.6319 N   0  0  0  0  0  0  0  0  0  0  0  0
  -27.7547   -1.1961   -8.8326 C   0  0  0  0  0  0  0  0  0  0  0  0
  -27.2675   -2.0936   -9.7476 C   0  0  0  0  0  0  0  0  0  0  0  0
  -27.3519   -3.4547   -9.5450 N   0  0  0  0  0  0  0  0  0  0  0  0
  -27.8909   -3.8882   -8.3379 C   0  0  0  0  0  0  0  0  0  0  0  0
  -28.2293   -5.2385   -7.9375 C   0  0  0  0  0  0  0  0  0  0  0  0
  -26.5390   -1.5045  -10.8806 C   0  0  0  0  0  0  0  0  0  0  0  0
  -26.8457   -1.5288  -12.2682 C   0  0  0  0  0  0  0  0  0  0  0  0
  -25.8292   -1.1145  -13.0360 N   0  0  0  0  0  0  0  0  0  0  0  0
  -24.8637   -0.8295  -12.1462 N   0  0  0  0  0  0  0  0  0  0  0  0
  -23.6941   -0.0827  -12.5472 C   0  0  0  0  0  0  0  0  0  0  0  0
  -25.1843   -1.2115  -10.8715 C   0  0  0  0  0  0  0  0  0  0  0  0
  -29.7262   -9.4959   -8.7335 C   0  0  0  0  0  0  0  0  0  0  0  0
  -31.0432   -9.9239   -8.5594 C   0  0  0  0  0  0  0  0  0  0  0  0
  -31.8810   -9.2497   -7.6753 C   0  0  0  0  0  0  0  0  0  0  0  0
  -31.3943   -8.1493   -6.9571 C   0  0  0  0  0  0  0  0  0  0  0  0
  -30.0708   -7.6979   -7.0834 C   0  0  0  0  0  0  0  0  0  0  0  0
  -29.2488   -8.3923   -7.9959 C   0  0  0  0  0  0  0  0  0  0  0  0
  -29.1141  -10.1561  -10.9420 C   0  0  0  0  0  0  0  0  0  0  0  0
  -28.8139  -10.1256   -9.5457 O   0  0  0  0  0  0  0  0  0  0  0  0
  -33.1810   -9.5816   -7.3967 O   0  0  0  0  0  0  0  0  0  0  0  0
  -33.4006  -10.7941   -6.6841 C   0  0  0  0  0  0  0  0  0  0  0  0
  -30.3652   -6.2795   -5.0504 C   0  0  0  0  0  0  0  0  0  0  0  0
  -29.7884   -6.6572   -3.6551 C   0  0  0  0  0  0  0  0  0  0  0  0
  -30.8236   -6.8240   -2.6696 O   0  0  0  0  0  0  0  0  0  0  0  0
  -31.6259   -6.3876   -3.0021 H   0  0  0  0  0  0  0  0  0  0  0  0
  -29.0406   -8.0185   -3.7155 C   0  0  0  0  0  0  0  0  0  0  0  0
  -27.5929   -7.8640   -3.8538 N   0  0  0  0  0  0  0  0  0  0  0  0
  -27.1582   -7.8007   -2.9324 H   0  0  0  0  0  0  0  0  0  0  0  0
  -26.9650   -8.9870   -4.5938 C   0  0  0  0  0  0  0  0  0  0  0  0
  -25.4989   -9.3039   -4.2070 C   0  0  0  0  0  0  0  0  0  0  0  0
  -24.7141   -9.4761   -5.2950 F   0  0  0  0  0  0  0  0  0  0  0  0
  -24.9608   -8.2931   -3.4862 F   0  0  0  0  0  0  0  0  0  0  0  0
  -25.4176  -10.4277   -3.4614 F   0  0  0  0  0  0  0  0  0  0  0  0
 24 25  1  0  0  0
 25 18  1  0  0  0
 18 19  1  0  0  0
 18 23  2  0  0  0
 19 20  2  0  0  0
 20 26  1  0  0  0
 20 21  1  0  0  0
 26 27  1  0  0  0
 21 22  2  0  0  0
 22  1  1  0  0  0
 22 23  1  0  0  0
  1 28  1  0  0  0
  1  2  1  0  0  0
 28 29  1  0  0  0
 29 30  1  0  0  0
 29 32  1  0  0  0
 30 31  1  0  0  0
 32 33  1  0  0  0
 33 35  1  0  0  0
 33 34  1  0  0  0
 35 36  1  0  0  0
 36 37  1  0  0  0
 36 38  1  0  0  0
 36 39  1  0  0  0
  2  3  1  0  0  0
  2 11  2  0  0  0
  3  4  2  0  0  0
  4  5  1  0  0  0
  5  6  1  0  0  0
  5 10  2  0  0  0
  6  7  2  0  0  0
  7  8  1  0  0  0
  8 12  1  0  0  0
  8  9  2  0  0  0
 12 13  1  0  0  0
 12 17  2  0  0  0
 13 14  2  0  0  0
 14 15  1  0  0  0
 15 16  1  0  0  0
 15 17  1  0  0  0
  9 10  1  0  0  0
 10 11  1  0  0  0
M  END
> <minimizedAffinity>
-8.26318

$$$$
