CHEMBL4214476


 31 35  0  0  0  0  0  0  0  0999 V2000
  -29.0184  -10.1690   -4.1357 C   0  0  0  0  0  0  0  0  0  0  0  0
  -28.7149   -9.0280   -3.4880 N   0  0  0  0  0  0  0  0  0  0  0  0
  -28.7658   -7.8588   -4.1513 C   0  0  0  0  0  0  0  0  0  0  0  0
  -29.1108   -7.8501   -5.4926 C   0  0  0  0  0  0  0  0  0  0  0  0
  -29.2251   -6.9014   -6.5445 C   0  0  0  0  0  0  0  0  0  0  0  0
  -29.6738   -7.4852   -7.6705 N   0  0  0  0  0  0  0  0  0  0  0  0
  -29.7794   -8.7995   -7.3449 N   0  0  0  0  0  0  0  0  0  0  0  0
  -29.4350   -9.0701   -6.0488 C   0  0  0  0  0  0  0  0  0  0  0  0
  -29.4004  -10.2624   -5.4223 N   0  0  0  0  0  0  0  0  0  0  0  0
  -28.8990   -5.4825   -6.4808 C   0  0  0  0  0  0  0  0  0  0  0  0
  -28.8792   -4.6923   -7.6263 C   0  0  0  0  0  0  0  0  0  0  0  0
  -28.5210   -3.3504   -7.5371 C   0  0  0  0  0  0  0  0  0  0  0  0
  -28.1951   -2.7864   -6.3073 C   0  0  0  0  0  0  0  0  0  0  0  0
  -28.2084   -3.5461   -5.1892 N   0  0  0  0  0  0  0  0  0  0  0  0
  -28.5742   -4.8534   -5.2906 C   0  0  0  0  0  0  0  0  0  0  0  0
  -27.8351   -1.4671   -6.2108 N   0  0  0  0  0  0  0  0  0  0  0  0
  -27.3248   -0.8490   -4.9896 C   0  0  0  0  0  0  0  0  0  0  0  0
  -28.1537    0.4109   -4.6647 C   0  0  0  0  0  0  0  0  0  0  0  0
  -28.2145    1.3744   -5.7860 N   0  0  0  0  0  0  0  0  0  0  0  0
  -28.7226    0.6781   -6.9942 C   0  0  0  0  0  0  0  0  0  0  0  0
  -27.9203   -0.5925   -7.3794 C   0  0  0  0  0  0  0  0  0  0  0  0
  -27.2647    1.6813   -5.9858 H   0  0  0  0  0  0  0  0  0  0  0  0
  -30.2228  -11.9520   -3.1141 C   0  0  0  0  0  0  0  0  0  0  0  0
  -28.9386  -11.3650   -3.4312 N   0  0  0  0  0  0  0  0  0  0  0  0
  -28.2951  -11.9586   -3.9433 H   0  0  0  0  0  0  0  0  0  0  0  0
  -30.1264   -9.7603   -8.3727 C   0  0  0  0  0  0  0  0  0  0  0  0
  -29.1300   -9.7938   -9.5239 C   0  0  0  0  0  0  0  0  0  0  0  0
  -29.3340  -10.9173  -10.3950 O   0  0  0  0  0  0  0  0  0  0  0  0
  -28.1178  -11.6634  -10.3669 C   0  0  0  0  0  0  0  0  0  0  0  0
  -27.0794  -10.6749   -9.9139 C   0  0  0  0  0  0  0  0  0  0  0  0
  -27.7910   -9.8561   -8.9891 O   0  0  0  0  0  0  0  0  0  0  0  0
 23 24  1  0  0  0
 24  1  1  0  0  0
 24 25  1  0  0  0
  1  2  1  0  0  0
  1  9  2  0  0  0
  2  3  2  0  0  0
  3  4  1  0  0  0
  4  5  1  0  0  0
  4  8  2  0  0  0
  5 10  1  0  0  0
  5  6  2  0  0  0
 10 11  1  0  0  0
 10 15  2  0  0  0
 11 12  2  0  0  0
 12 13  1  0  0  0
 13 16  1  0  0  0
 13 14  2  0  0  0
 16 17  1  0  0  0
 16 21  1  0  0  0
 17 18  1  0  0  0
 18 19  1  0  0  0
 19 20  1  0  0  0
 19 22  1  0  0  0
 20 21  1  0  0  0
 14 15  1  0  0  0
  6  7  1  0  0  0
  7 26  1  0  0  0
  7  8  1  0  0  0
 26 27  1  0  0  0
 27 28  1  0  0  0
 27 31  1  0  0  0
 28 29  1  0  0  0
 29 30  1  0  0  0
 30 31  1  0  0  0
  8  9  1  0  0  0
M  END
> <minimizedAffinity>
-8.07311

$$$$
