CHEMBL13976


 30 32  0  0  0  0  0  0  0  0999 V2000
  -12.5135   -0.2379  -16.1271 C   0  0  0  0  0  0  0  0  0  0  0  0
  -13.6151   -0.4148  -15.1423 C   0  0  0  0  0  0  0  0  0  0  0  0
  -14.8525    0.1226  -15.4151 N   0  0  0  0  0  0  0  0  0  0  0  0
  -15.7265   -0.1001  -14.3855 C   0  0  0  0  0  0  0  0  0  0  0  0
  -15.0297   -0.8035  -13.4114 C   0  0  0  0  0  0  0  0  0  0  0  0
  -15.5564   -1.2925  -12.1001 C   0  0  0  0  0  0  0  0  0  0  0  0
  -13.6790   -1.0024  -13.8825 C   0  0  0  0  0  0  0  0  0  0  0  0
  -15.0731    0.6333  -16.2652 H   0  0  0  0  0  0  0  0  0  0  0  0
  -17.0723    0.3529  -14.4134 C   0  0  0  0  0  0  0  0  0  0  0  0
  -17.5767    1.5383  -14.7867 C   0  0  0  0  0  0  0  0  0  0  0  0
  -16.9187    2.7956  -15.2997 C   0  0  0  0  0  0  0  0  0  0  0  0
  -15.7355    3.0024  -15.4914 O   0  0  0  0  0  0  0  0  0  0  0  0
  -17.9561    3.6906  -15.5161 N   0  0  0  0  0  0  0  0  0  0  0  0
  -19.1875    3.1298  -15.1961 C   0  0  0  0  0  0  0  0  0  0  0  0
  -20.4260    3.7330  -15.2911 C   0  0  0  0  0  0  0  0  0  0  0  0
  -21.5374    2.9755  -14.9134 C   0  0  0  0  0  0  0  0  0  0  0  0
  -21.3764    1.6584  -14.4594 C   0  0  0  0  0  0  0  0  0  0  0  0
  -22.4581    0.9535  -14.1043 F   0  0  0  0  0  0  0  0  0  0  0  0
  -20.1215    1.0628  -14.3680 C   0  0  0  0  0  0  0  0  0  0  0  0
  -19.0232    1.8172  -14.7435 C   0  0  0  0  0  0  0  0  0  0  0  0
  -17.8057    4.6252  -15.8642 H   0  0  0  0  0  0  0  0  0  0  0  0
  -12.6202   -1.6731  -13.1176 C   0  0  0  0  0  0  0  0  0  0  0  0
  -11.7482   -1.0464  -12.5194 O   0  0  0  0  0  0  0  0  0  0  0  0
  -12.6925   -3.0423  -13.0540 N   0  0  0  0  0  0  0  0  0  0  0  0
  -13.4666   -3.5297  -13.4784 H   0  0  0  0  0  0  0  0  0  0  0  0
  -11.7544   -3.7971  -12.2515 C   0  0  0  0  0  0  0  0  0  0  0  0
  -12.3891   -4.3770  -10.9765 C   0  0  0  0  0  0  0  0  0  0  0  0
  -12.8671   -3.3667  -10.0077 N   0  0  0  0  0  0  0  0  0  0  0  0
  -14.2293   -3.6618   -9.5518 C   0  0  0  0  0  0  0  0  0  0  0  0
  -11.9646   -3.3230   -8.8531 C   0  0  0  0  0  0  0  0  0  0  0  0
  1  2  1  0  0  0
  2  3  1  0  0  0
  2  7  2  0  0  0
  3  4  1  0  0  0
  3  8  1  0  0  0
  4  9  1  0  0  0
  4  5  2  0  0  0
  9 10  2  0  0  0
 10 11  1  0  0  0
 10 20  1  0  0  0
 11 12  2  0  0  0
 11 13  1  0  0  0
 13 14  1  0  0  0
 13 21  1  0  0  0
 14 15  1  0  0  0
 14 20  2  0  0  0
 15 16  2  0  0  0
 16 17  1  0  0  0
 17 18  1  0  0  0
 17 19  2  0  0  0
 19 20  1  0  0  0
  5  6  1  0  0  0
  5  7  1  0  0  0
  7 22  1  0  0  0
 22 23  2  0  0  0
 22 24  1  0  0  0
 24 26  1  0  0  0
 24 25  1  0  0  0
 26 27  1  0  0  0
 27 28  1  0  0  0
 28 29  1  0  0  0
 28 30  1  0  0  0
M  END
> <minimizedAffinity>
-7.79574

$$$$
