CHEMBL189691


 44 47  0  0  0  0  0  0  0  0999 V2000
  -28.3758   -7.9999   -5.4024 C   0  0  0  0  0  0  0  0  0  0  0  0
  -28.0053   -6.9049   -4.6019 C   0  0  0  0  0  0  0  0  0  0  0  0
  -28.4284   -5.6088   -4.8954 C   0  0  0  0  0  0  0  0  0  0  0  0
  -28.1101   -4.5299   -4.0823 C   0  0  0  0  0  0  0  0  0  0  0  0
  -28.5071   -3.2687   -4.3207 N   0  0  0  0  0  0  0  0  0  0  0  0
  -29.2768   -3.0568   -5.4036 C   0  0  0  0  0  0  0  0  0  0  0  0
  -29.6114   -4.0949   -6.2745 C   0  0  0  0  0  0  0  0  0  0  0  0
  -29.1864   -5.3988   -6.0450 C   0  0  0  0  0  0  0  0  0  0  0  0
  -29.4869   -6.4180   -6.8916 N   0  0  0  0  0  0  0  0  0  0  0  0
  -29.1409   -7.6914   -6.5457 C   0  0  0  0  0  0  0  0  0  0  0  0
  -25.9353  -10.8691   -4.8800 C   0  0  0  0  0  0  0  0  0  0  0  0
  -26.6696  -11.7208   -4.0546 C   0  0  0  0  0  0  0  0  0  0  0  0
  -27.9737  -11.3808   -3.7007 C   0  0  0  0  0  0  0  0  0  0  0  0
  -28.5522  -10.2239   -4.2277 C   0  0  0  0  0  0  0  0  0  0  0  0
  -27.8237   -9.3248   -5.0384 C   0  0  0  0  0  0  0  0  0  0  0  0
  -26.5063   -9.6886   -5.3528 C   0  0  0  0  0  0  0  0  0  0  0  0
  -23.8011   -9.9005   -5.2390 C   0  0  0  0  0  0  0  0  0  0  0  0
  -24.6360  -11.0483   -5.2737 O   0  0  0  0  0  0  0  0  0  0  0  0
  -28.7657  -12.0947   -2.8453 O   0  0  0  0  0  0  0  0  0  0  0  0
  -30.1691  -12.0127   -3.0888 C   0  0  0  0  0  0  0  0  0  0  0  0
  -29.5280   -8.6933   -7.4846 N   0  0  0  0  0  0  0  0  0  0  0  0
  -28.6689   -8.9678   -8.5333 C   0  0  0  0  0  0  0  0  0  0  0  0
  -27.6011   -8.3870   -8.7190 O   0  0  0  0  0  0  0  0  0  0  0  0
  -29.1295  -10.0072   -9.3311 N   0  0  0  0  0  0  0  0  0  0  0  0
  -29.7282   -9.5597   -7.0048 H   0  0  0  0  0  0  0  0  0  0  0  0
  -30.1332  -10.0466   -9.4141 H   0  0  0  0  0  0  0  0  0  0  0  0
  -28.3371  -10.5992  -10.4451 C   0  0  0  0  0  0  0  0  0  0  0  0
  -26.8855  -10.0905  -10.3839 C   0  0  0  0  0  0  0  0  0  0  0  0
  -28.2949  -12.1403  -10.3243 C   0  0  0  0  0  0  0  0  0  0  0  0
  -28.9402  -10.2704  -11.8211 C   0  0  0  0  0  0  0  0  0  0  0  0
  -29.6824   -1.7682   -5.6842 N   0  0  0  0  0  0  0  0  0  0  0  0
  -30.6524   -1.5174   -5.5688 H   0  0  0  0  0  0  0  0  0  0  0  0
  -28.7076   -0.7772   -6.0942 C   0  0  0  0  0  0  0  0  0  0  0  0
  -27.6863   -1.3810   -7.0582 C   0  0  0  0  0  0  0  0  0  0  0  0
  -28.0620   -1.1374   -8.5232 C   0  0  0  0  0  0  0  0  0  0  0  0
  -27.2643   -2.0502   -9.4531 C   0  0  0  0  0  0  0  0  0  0  0  0
  -27.3861   -1.6038  -10.9179 C   0  0  0  0  0  0  0  0  0  0  0  0
  -26.2068   -1.9547  -11.7230 N   0  0  0  0  0  0  0  0  0  0  0  0
  -26.2354   -1.3560  -13.0704 C   0  0  0  0  0  0  0  0  0  0  0  0
  -24.9770   -1.7179  -13.8890 C   0  0  0  0  0  0  0  0  0  0  0  0
  -23.7002   -1.3416  -13.2548 N   0  0  0  0  0  0  0  0  0  0  0  0
  -23.4887    0.1031  -13.3042 C   0  0  0  0  0  0  0  0  0  0  0  0
  -23.6905   -1.8510  -11.8670 C   0  0  0  0  0  0  0  0  0  0  0  0
  -24.9625   -1.5425  -11.0358 C   0  0  0  0  0  0  0  0  0  0  0  0
 17 18  1  0  0  0
 18 11  1  0  0  0
 11 12  1  0  0  0
 11 16  2  0  0  0
 12 13  2  0  0  0
 13 19  1  0  0  0
 13 14  1  0  0  0
 19 20  1  0  0  0
 14 15  2  0  0  0
 15  1  1  0  0  0
 15 16  1  0  0  0
  1  2  1  0  0  0
  1 10  2  0  0  0
  2  3  2  0  0  0
  3  4  1  0  0  0
  3  8  1  0  0  0
  4  5  2  0  0  0
  5  6  1  0  0  0
  6 31  1  0  0  0
  6  7  2  0  0  0
 31 33  1  0  0  0
 31 32  1  0  0  0
 33 34  1  0  0  0
 34 35  1  0  0  0
 35 36  1  0  0  0
 36 37  1  0  0  0
 37 38  1  0  0  0
 38 39  1  0  0  0
 38 44  1  0  0  0
 39 40  1  0  0  0
 40 41  1  0  0  0
 41 42  1  0  0  0
 41 43  1  0  0  0
 43 44  1  0  0  0
  7  8  1  0  0  0
  8  9  2  0  0  0
  9 10  1  0  0  0
 10 21  1  0  0  0
 21 22  1  0  0  0
 21 25  1  0  0  0
 22 23  2  0  0  0
 22 24  1  0  0  0
 24 27  1  0  0  0
 24 26  1  0  0  0
 27 28  1  0  0  0
 27 29  1  0  0  0
 27 30  1  0  0  0
M  END
> <minimizedAffinity>
-8.77175

$$$$
