CHEMBL3114029


 31 34  0  0  0  0  0  0  0  0999 V2000
  -28.3136   -3.0715   -6.8112 C   0  0  0  0  0  0  0  0  0  0  0  0
  -28.2496   -1.8282   -6.2151 C   0  0  0  0  0  0  0  0  0  0  0  0
  -28.0364   -0.7543   -7.0167 C   0  0  0  0  0  0  0  0  0  0  0  0
  -27.8948   -0.8559   -8.3440 N   0  0  0  0  0  0  0  0  0  0  0  0
  -27.9912   -2.0842   -8.8788 C   0  0  0  0  0  0  0  0  0  0  0  0
  -28.1922   -3.1856   -8.1609 N   0  0  0  0  0  0  0  0  0  0  0  0
  -28.2954   -4.0874   -4.5851 C   0  0  0  0  0  0  0  0  0  0  0  0
  -28.4995   -4.2352   -6.0297 N   0  0  0  0  0  0  0  0  0  0  0  0
  -29.0405   -5.4607   -6.4959 C   0  0  0  0  0  0  0  0  0  0  0  0
  -30.3184   -5.8849   -5.9603 C   0  0  0  0  0  0  0  0  0  0  0  0
  -31.0324   -7.0339   -6.3559 C   0  0  0  0  0  0  0  0  0  0  0  0
  -30.3345   -7.7249   -7.3316 C   0  0  0  0  0  0  0  0  0  0  0  0
  -30.7497   -8.8732   -7.9419 C   0  0  0  0  0  0  0  0  0  0  0  0
  -29.7473   -9.1774   -8.8169 N   0  0  0  0  0  0  0  0  0  0  0  0
  -29.6995  -10.3061   -9.7134 C   0  0  0  0  0  0  0  0  0  0  0  0
  -28.7198   -8.3024   -8.8152 N   0  0  0  0  0  0  0  0  0  0  0  0
  -29.0571   -7.3815   -7.8974 C   0  0  0  0  0  0  0  0  0  0  0  0
  -28.3706   -6.2322   -7.4799 C   0  0  0  0  0  0  0  0  0  0  0  0
  -27.9332   -2.1933  -10.2733 N   0  0  0  0  0  0  0  0  0  0  0  0
  -28.7208   -2.6977  -10.6575 H   0  0  0  0  0  0  0  0  0  0  0  0
  -26.8856   -1.8304  -11.1152 C   0  0  0  0  0  0  0  0  0  0  0  0
  -27.0653   -1.7756  -12.5030 C   0  0  0  0  0  0  0  0  0  0  0  0
  -26.0041   -1.5310  -13.3652 C   0  0  0  0  0  0  0  0  0  0  0  0
  -24.7206   -1.3306  -12.8672 C   0  0  0  0  0  0  0  0  0  0  0  0
  -24.5226   -1.3895  -11.4840 C   0  0  0  0  0  0  0  0  0  0  0  0
  -25.5947   -1.6244  -10.6164 C   0  0  0  0  0  0  0  0  0  0  0  0
  -23.5978   -1.1242  -13.6080 O   0  0  0  0  0  0  0  0  0  0  0  0
  -22.9352    0.1274  -13.4619 C   0  0  0  0  0  0  0  0  0  0  0  0
  -23.7404    1.1507  -13.1143 F   0  0  0  0  0  0  0  0  0  0  0  0
  -21.9982    0.0206  -12.4917 F   0  0  0  0  0  0  0  0  0  0  0  0
  -22.3099    0.4447  -14.6185 F   0  0  0  0  0  0  0  0  0  0  0  0
  7  8  1  0  0  0
  8  9  1  0  0  0
  8  1  1  0  0  0
  9 10  1  0  0  0
  9 18  2  0  0  0
 10 11  2  0  0  0
 11 12  1  0  0  0
 12 13  2  0  0  0
 12 17  1  0  0  0
 13 14  1  0  0  0
 14 15  1  0  0  0
 14 16  1  0  0  0
 16 17  2  0  0  0
 17 18  1  0  0  0
  1  2  1  0  0  0
  1  6  2  0  0  0
  2  3  2  0  0  0
  3  4  1  0  0  0
  4  5  2  0  0  0
  5 19  1  0  0  0
  5  6  1  0  0  0
 19 21  1  0  0  0
 19 20  1  0  0  0
 21 22  1  0  0  0
 21 26  2  0  0  0
 22 23  2  0  0  0
 23 24  1  0  0  0
 24 27  1  0  0  0
 24 25  2  0  0  0
 27 28  1  0  0  0
 28 29  1  0  0  0
 28 30  1  0  0  0
 28 31  1  0  0  0
 25 26  1  0  0  0
M  END
> <minimizedAffinity>
-9.72101

$$$$
