CHEMBL3979264


 44 48  0  0  0  0  0  0  0  0999 V2000
  -28.7691   -3.9928   -7.1525 C   0  0  0  0  0  0  0  0  0  0  0  0
  -29.7033   -4.5404   -6.2777 C   0  0  0  0  0  0  0  0  0  0  0  0
  -30.0022   -3.9278   -5.0363 C   0  0  0  0  0  0  0  0  0  0  0  0
  -30.8769   -4.4704   -4.0845 C   0  0  0  0  0  0  0  0  0  0  0  0
  -31.2211   -3.8187   -2.9655 N   0  0  0  0  0  0  0  0  0  0  0  0
  -30.6463   -2.6291   -2.7769 C   0  0  0  0  0  0  0  0  0  0  0  0
  -29.7491   -2.0458   -3.5813 N   0  0  0  0  0  0  0  0  0  0  0  0
  -29.4352   -2.6951   -4.7061 C   0  0  0  0  0  0  0  0  0  0  0  0
  -28.5275   -2.1413   -5.5956 C   0  0  0  0  0  0  0  0  0  0  0  0
  -28.1940   -2.7582   -6.8124 C   0  0  0  0  0  0  0  0  0  0  0  0
  -28.1176   -6.0022   -8.3165 C   0  0  0  0  0  0  0  0  0  0  0  0
  -28.3756   -4.6033   -8.3089 O   0  0  0  0  0  0  0  0  0  0  0  0
  -31.3489   -5.7878   -4.2913 N   0  0  0  0  0  0  0  0  0  0  0  0
  -32.2923   -5.7654   -4.6728 H   0  0  0  0  0  0  0  0  0  0  0  0
  -30.6312   -6.9428   -4.6284 C   0  0  0  0  0  0  0  0  0  0  0  0
  -29.6014   -7.3545   -3.7808 C   0  0  0  0  0  0  0  0  0  0  0  0
  -28.7219   -8.3673   -4.1626 C   0  0  0  0  0  0  0  0  0  0  0  0
  -28.8151   -8.9700   -5.4229 C   0  0  0  0  0  0  0  0  0  0  0  0
  -29.8759   -8.5939   -6.2539 C   0  0  0  0  0  0  0  0  0  0  0  0
  -30.0699   -9.2867   -7.8269 Cl  0  0  0  0  0  0  0  0  0  0  0  0
  -30.7675   -7.5861   -5.8622 C   0  0  0  0  0  0  0  0  0  0  0  0
  -27.8429   -9.8936   -5.8914 N   0  0  0  0  0  0  0  0  0  0  0  0
  -26.5464   -9.9696   -5.4276 C   0  0  0  0  0  0  0  0  0  0  0  0
  -26.0993   -9.2790   -4.5117 O   0  0  0  0  0  0  0  0  0  0  0  0
  -25.7597  -10.8602   -6.1390 N   0  0  0  0  0  0  0  0  0  0  0  0
  -28.0857  -10.4142   -6.7249 H   0  0  0  0  0  0  0  0  0  0  0  0
  -25.9636  -10.9051   -7.1269 H   0  0  0  0  0  0  0  0  0  0  0  0
  -24.3918  -10.9714   -5.7806 C   0  0  0  0  0  0  0  0  0  0  0  0
  -23.3945  -10.3906   -6.5754 C   0  0  0  0  0  0  0  0  0  0  0  0
  -22.0506  -10.6579   -6.3270 C   0  0  0  0  0  0  0  0  0  0  0  0
  -21.6993  -11.5046   -5.2796 C   0  0  0  0  0  0  0  0  0  0  0  0
  -22.6881  -12.0458   -4.4557 C   0  0  0  0  0  0  0  0  0  0  0  0
  -24.0363  -11.7596   -4.6869 C   0  0  0  0  0  0  0  0  0  0  0  0
  -27.2845   -2.0391   -7.5507 O   0  0  0  0  0  0  0  0  0  0  0  0
  -27.8020   -1.4053   -8.7181 C   0  0  0  0  0  0  0  0  0  0  0  0
  -27.1370   -1.9919   -9.9572 C   0  0  0  0  0  0  0  0  0  0  0  0
  -27.6569   -1.2467  -11.1903 C   0  0  0  0  0  0  0  0  0  0  0  0
  -26.6141   -0.8424  -12.1371 N   0  0  0  0  0  0  0  0  0  0  0  0
  -25.3625   -0.5443  -11.4086 C   0  0  0  0  0  0  0  0  0  0  0  0
  -24.2300   -0.1132  -12.3656 C   0  0  0  0  0  0  0  0  0  0  0  0
  -23.9267   -1.0838  -13.4359 N   0  0  0  0  0  0  0  0  0  0  0  0
  -23.2243   -2.2560  -12.9205 C   0  0  0  0  0  0  0  0  0  0  0  0
  -25.1853   -1.4605  -14.1104 C   0  0  0  0  0  0  0  0  0  0  0  0
  -26.3464   -1.8638  -13.1684 C   0  0  0  0  0  0  0  0  0  0  0  0
 11 12  1  0  0  0
 12  1  1  0  0  0
  1  2  1  0  0  0
  1 10  2  0  0  0
  2  3  2  0  0  0
  3  4  1  0  0  0
  3  8  1  0  0  0
  4 13  1  0  0  0
  4  5  2  0  0  0
 13 15  1  0  0  0
 13 14  1  0  0  0
 15 16  1  0  0  0
 15 21  2  0  0  0
 16 17  2  0  0  0
 17 18  1  0  0  0
 18 22  1  0  0  0
 18 19  2  0  0  0
 22 23  1  0  0  0
 22 26  1  0  0  0
 23 24  2  0  0  0
 23 25  1  0  0  0
 25 28  1  0  0  0
 25 27  1  0  0  0
 28 29  1  0  0  0
 28 33  2  0  0  0
 29 30  2  0  0  0
 30 31  1  0  0  0
 31 32  2  0  0  0
 32 33  1  0  0  0
 19 20  1  0  0  0
 19 21  1  0  0  0
  5  6  1  0  0  0
  6  7  2  0  0  0
  7  8  1  0  0  0
  8  9  2  0  0  0
  9 10  1  0  0  0
 10 34  1  0  0  0
 34 35  1  0  0  0
 35 36  1  0  0  0
 36 37  1  0  0  0
 37 38  1  0  0  0
 38 39  1  0  0  0
 38 44  1  0  0  0
 39 40  1  0  0  0
 40 41  1  0  0  0
 41 42  1  0  0  0
 41 43  1  0  0  0
 43 44  1  0  0  0
M  END
> <minimizedAffinity>
-8.98001

$$$$
