CHEMBL3656071


 49 53  0  0  0  0  0  0  0  0999 V2000
  -23.1910   10.7571  -17.3137 C   0  0  0  0  0  0  0  0  0  0  0  0
  -22.8121   10.9722  -18.6328 C   0  0  0  0  0  0  0  0  0  0  0  0
  -21.4731   11.2076  -18.9257 C   0  0  0  0  0  0  0  0  0  0  0  0
  -20.5388   11.1005  -17.9048 C   0  0  0  0  0  0  0  0  0  0  0  0
  -21.0011   10.8366  -16.6212 C   0  0  0  0  0  0  0  0  0  0  0  0
  -22.3072   10.6830  -16.2935 N   0  0  0  0  0  0  0  0  0  0  0  0
  -26.7155   10.9738  -16.1312 C   0  0  0  0  0  0  0  0  0  0  0  0
  -26.6544    9.7280  -16.7356 C   0  0  0  0  0  0  0  0  0  0  0  0
  -25.3793    9.5425  -17.2243 N   0  0  0  0  0  0  0  0  0  0  0  0
  -24.6011   10.6467  -16.9572 C   0  0  0  0  0  0  0  0  0  0  0  0
  -25.4150   11.5354  -16.2825 C   0  0  0  0  0  0  0  0  0  0  0  0
  -25.0280    8.7192  -17.6986 H   0  0  0  0  0  0  0  0  0  0  0  0
  -28.0808   11.2235  -14.1748 N   0  0  0  0  0  0  0  0  0  0  0  0
  -27.8117   11.6503  -15.4459 C   0  0  0  0  0  0  0  0  0  0  0  0
  -28.4449   12.5532  -15.9879 O   0  0  0  0  0  0  0  0  0  0  0  0
  -27.5916   10.4264  -13.7910 H   0  0  0  0  0  0  0  0  0  0  0  0
  -29.1470   11.8180  -13.4006 C   0  0  0  0  0  0  0  0  0  0  0  0
  -30.2057   10.7997  -12.9814 C   0  0  0  0  0  0  0  0  0  0  0  0
  -31.5163   11.4359  -12.4850 C   0  0  0  0  0  0  0  0  0  0  0  0
  -33.2977   10.3471  -11.1208 C   0  0  0  0  0  0  0  0  0  0  0  0
  -34.2365   11.5146  -10.8632 C   0  0  0  0  0  0  0  0  0  0  0  0
  -33.4675   12.3573   -9.8706 C   0  0  0  0  0  0  0  0  0  0  0  0
  -32.0018   12.0796  -10.1746 C   0  0  0  0  0  0  0  0  0  0  0  0
  -31.9373   10.9692  -11.1511 N   0  0  0  0  0  0  0  0  0  0  0  0
  -33.6970    9.5353  -12.3523 C   0  0  0  0  0  0  0  0  0  0  0  0
  -33.1567    8.4918  -12.7013 O   0  0  0  0  0  0  0  0  0  0  0  0
  -34.4871   10.2614  -14.4350 C   0  0  0  0  0  0  0  0  0  0  0  0
  -34.7185   10.1386  -13.0300 O   0  0  0  0  0  0  0  0  0  0  0  0
  -21.0102   11.5160  -20.1923 O   0  0  0  0  0  0  0  0  0  0  0  0
  -19.6664   11.3466  -20.4670 C   0  0  0  0  0  0  0  0  0  0  0  0
  -19.1571   10.2144  -21.0954 C   0  0  0  0  0  0  0  0  0  0  0  0
  -17.7787   10.0497  -21.2390 C   0  0  0  0  0  0  0  0  0  0  0  0
  -16.8793   11.0416  -20.8327 C   0  0  0  0  0  0  0  0  0  0  0  0
  -17.4028   12.2236  -20.2984 C   0  0  0  0  0  0  0  0  0  0  0  0
  -18.7897   12.3744  -20.1134 C   0  0  0  0  0  0  0  0  0  0  0  0
  -15.4731   10.8848  -20.9173 N   0  0  0  0  0  0  0  0  0  0  0  0
  -14.7035   10.0733  -20.1016 C   0  0  0  0  0  0  0  0  0  0  0  0
  -15.1443    9.2985  -19.2595 O   0  0  0  0  0  0  0  0  0  0  0  0
  -13.3407   10.2508  -20.3080 N   0  0  0  0  0  0  0  0  0  0  0  0
  -14.9974   11.3541  -21.6732 H   0  0  0  0  0  0  0  0  0  0  0  0
  -13.0637   11.2112  -20.4695 H   0  0  0  0  0  0  0  0  0  0  0  0
  -12.4231    9.4963  -19.5251 C   0  0  0  0  0  0  0  0  0  0  0  0
  -12.0175    8.2104  -19.9067 C   0  0  0  0  0  0  0  0  0  0  0  0
  -11.2065    7.4345  -19.0666 C   0  0  0  0  0  0  0  0  0  0  0  0
  -10.7919    6.0498  -19.4717 C   0  0  0  0  0  0  0  0  0  0  0  0
  -10.8062    7.9598  -17.8312 C   0  0  0  0  0  0  0  0  0  0  0  0
  -11.1811    9.2534  -17.4590 C   0  0  0  0  0  0  0  0  0  0  0  0
  -11.9652   10.0198  -18.3169 C   0  0  0  0  0  0  0  0  0  0  0  0
  -12.3445   11.2501  -17.9373 F   0  0  0  0  0  0  0  0  0  0  0  0
 27 28  1  0  0  0
 28 25  1  0  0  0
 25 26  2  0  0  0
 25 20  1  0  0  0
 20 21  1  0  0  0
 20 24  1  0  0  0
 21 22  1  0  0  0
 22 23  1  0  0  0
 23 24  1  0  0  0
 24 19  1  0  0  0
 19 18  1  0  0  0
 18 17  1  0  0  0
 17 13  1  0  0  0
 13 14  1  0  0  0
 13 16  1  0  0  0
 14 15  2  0  0  0
 14  7  1  0  0  0
  7  8  2  0  0  0
  7 11  1  0  0  0
  8  9  1  0  0  0
  9 10  1  0  0  0
  9 12  1  0  0  0
 10  1  1  0  0  0
 10 11  2  0  0  0
  1  2  1  0  0  0
  1  6  2  0  0  0
  2  3  2  0  0  0
  3 29  1  0  0  0
  3  4  1  0  0  0
 29 30  1  0  0  0
 30 31  1  0  0  0
 30 35  2  0  0  0
 31 32  2  0  0  0
 32 33  1  0  0  0
 33 36  1  0  0  0
 33 34  2  0  0  0
 36 37  1  0  0  0
 36 40  1  0  0  0
 37 38  2  0  0  0
 37 39  1  0  0  0
 39 42  1  0  0  0
 39 41  1  0  0  0
 42 43  1  0  0  0
 42 48  2  0  0  0
 43 44  2  0  0  0
 44 45  1  0  0  0
 44 46  1  0  0  0
 46 47  2  0  0  0
 47 48  1  0  0  0
 48 49  1  0  0  0
 34 35  1  0  0  0
  4  5  2  0  0  0
  5  6  1  0  0  0
M  END
> <minimizedAffinity>
-6.16412

$$$$
