CHEMBL4520209


 45 51  0  0  0  0  0  0  0  0999 V2000
  -11.2249   -3.2674  -13.3122 C   0  0  0  0  0  0  0  0  0  0  0  0
  -10.7812   -3.3839  -11.8465 C   0  0  0  0  0  0  0  0  0  0  0  0
  -11.7048   -4.4881  -11.4192 C   0  0  0  0  0  0  0  0  0  0  0  0
  -12.1174   -5.2298  -12.4065 N   0  0  0  0  0  0  0  0  0  0  0  0
  -11.6751   -4.6464  -13.5608 N   0  0  0  0  0  0  0  0  0  0  0  0
  -12.1656   -4.6525  -10.0017 C   0  0  0  0  0  0  0  0  0  0  0  0
  -13.0970   -5.6239   -9.8679 C   0  0  0  0  0  0  0  0  0  0  0  0
  -14.4280   -5.0562  -10.1965 C   0  0  0  0  0  0  0  0  0  0  0  0
  -15.1994   -5.6651  -11.1886 C   0  0  0  0  0  0  0  0  0  0  0  0
  -16.1027   -4.8941  -11.9200 C   0  0  0  0  0  0  0  0  0  0  0  0
  -16.3240   -3.5548  -11.5836 C   0  0  0  0  0  0  0  0  0  0  0  0
  -15.6443   -2.9724  -10.5158 C   0  0  0  0  0  0  0  0  0  0  0  0
  -14.6665   -3.7198   -9.8674 C   0  0  0  0  0  0  0  0  0  0  0  0
  -13.7375   -3.0289   -9.0683 O   0  0  0  0  0  0  0  0  0  0  0  0
  -12.4109   -3.4103   -9.2193 C   0  0  0  0  0  0  0  0  0  0  0  0
  -11.4798   -2.7682   -8.7512 O   0  0  0  0  0  0  0  0  0  0  0  0
  -14.4040   -0.2968  -14.1164 C   0  0  0  0  0  0  0  0  0  0  0  0
  -13.0555    0.0642  -13.9633 C   0  0  0  0  0  0  0  0  0  0  0  0
  -12.0442   -0.8830  -13.6852 C   0  0  0  0  0  0  0  0  0  0  0  0
  -12.3363   -2.2480  -13.5738 C   0  0  0  0  0  0  0  0  0  0  0  0
  -13.6689   -2.6201  -13.7763 C   0  0  0  0  0  0  0  0  0  0  0  0
  -14.6701   -1.6698  -14.0325 C   0  0  0  0  0  0  0  0  0  0  0  0
  -16.5645    0.7453  -13.4703 C   0  0  0  0  0  0  0  0  0  0  0  0
  -15.4220    0.6241  -14.3681 N   0  0  0  0  0  0  0  0  0  0  0  0
  -15.6185    1.0799  -15.7445 C   0  0  0  0  0  0  0  0  0  0  0  0
  -12.0040   -5.0617  -14.8050 C   0  0  0  0  0  0  0  0  0  0  0  0
  -12.0830   -4.3299  -15.8870 N   0  0  0  0  0  0  0  0  0  0  0  0
  -12.5406   -5.0745  -16.9725 C   0  0  0  0  0  0  0  0  0  0  0  0
  -12.9499   -6.3714  -16.6592 C   0  0  0  0  0  0  0  0  0  0  0  0
  -12.4394   -6.7118  -15.0451 S   0  0  0  0  0  0  0  0  0  0  0  0
  -12.5325   -4.4957  -18.3121 C   0  0  0  0  0  0  0  0  0  0  0  0
  -11.7359   -5.1013  -19.2972 C   0  0  0  0  0  0  0  0  0  0  0  0
  -11.7437   -4.6279  -20.6160 C   0  0  0  0  0  0  0  0  0  0  0  0
  -12.5416   -3.5375  -20.9538 C   0  0  0  0  0  0  0  0  0  0  0  0
  -13.3111   -2.9096  -19.9757 C   0  0  0  0  0  0  0  0  0  0  0  0
  -13.3041   -3.3836  -18.6597 C   0  0  0  0  0  0  0  0  0  0  0  0
  -13.5506   -7.3501  -17.4018 N   0  0  0  0  0  0  0  0  0  0  0  0
  -12.9238   -8.4344  -17.3691 N   0  0  0  0  0  0  0  0  0  0  0  0
  -13.4314   -9.4410  -18.2027 C   0  0  0  0  0  0  0  0  0  0  0  0
  -14.0583  -10.6058  -17.7458 C   0  0  0  0  0  0  0  0  0  0  0  0
  -14.5605  -11.5453  -18.6532 C   0  0  0  0  0  0  0  0  0  0  0  0
  -14.4570  -11.3107  -20.0255 C   0  0  0  0  0  0  0  0  0  0  0  0
  -15.0756  -12.4650  -21.1382 Cl  0  0  0  0  0  0  0  0  0  0  0  0
  -13.8621  -10.1444  -20.4952 C   0  0  0  0  0  0  0  0  0  0  0  0
  -13.3587   -9.2145  -19.5838 C   0  0  0  0  0  0  0  0  0  0  0  0
 23 24  1  0  0  0
 24 25  1  0  0  0
 24 17  1  0  0  0
 17 18  1  0  0  0
 17 22  2  0  0  0
 18 19  2  0  0  0
 19 20  1  0  0  0
 20  1  1  0  0  0
 20 21  2  0  0  0
  1  2  1  0  0  0
  1  5  1  0  0  0
  2  3  1  0  0  0
  3  6  1  0  0  0
  3  4  2  0  0  0
  6  7  2  0  0  0
  6 15  1  0  0  0
  7  8  1  0  0  0
  8  9  1  0  0  0
  8 13  2  0  0  0
  9 10  2  0  0  0
 10 11  1  0  0  0
 11 12  2  0  0  0
 12 13  1  0  0  0
 13 14  1  0  0  0
 14 15  1  0  0  0
 15 16  2  0  0  0
  4  5  1  0  0  0
  5 26  1  0  0  0
 26 27  2  0  0  0
 26 30  1  0  0  0
 27 28  1  0  0  0
 28 31  1  0  0  0
 28 29  2  0  0  0
 31 32  1  0  0  0
 31 36  2  0  0  0
 32 33  2  0  0  0
 33 34  1  0  0  0
 34 35  2  0  0  0
 35 36  1  0  0  0
 29 37  1  0  0  0
 29 30  1  0  0  0
 37 38  2  0  0  0
 38 39  1  0  0  0
 39 40  1  0  0  0
 39 45  2  0  0  0
 40 41  2  0  0  0
 41 42  1  0  0  0
 42 43  1  0  0  0
 42 44  2  0  0  0
 44 45  1  0  0  0
 21 22  1  0  0  0
M  END
> <minimizedAffinity>
-8.24179

$$$$
