CHEMBL3648081


 38 39  0  0  0  0  0  0  0  0999 V2000
  -28.2120   -2.7928   -7.5753 C   0  0  0  0  0  0  0  0  0  0  0  0
  -28.0616   -3.1971   -6.2358 C   0  0  0  0  0  0  0  0  0  0  0  0
  -28.5963   -4.3789   -5.7148 C   0  0  0  0  0  0  0  0  0  0  0  0
  -29.3683   -5.1707   -6.5420 C   0  0  0  0  0  0  0  0  0  0  0  0
  -29.6447   -4.7398   -7.8457 C   0  0  0  0  0  0  0  0  0  0  0  0
  -29.0667   -3.5661   -8.3636 C   0  0  0  0  0  0  0  0  0  0  0  0
  -30.0280   -6.7057   -5.9972 S   0  0  0  0  0  0  0  0  0  0  0  0
  -28.9780   -7.4298   -5.2795 O   0  0  0  0  0  0  0  0  0  0  0  0
  -30.6120   -7.5702   -7.3115 N   0  0  0  0  0  0  0  0  0  0  0  0
  -31.3543   -9.0910   -7.0580 S   0  0  0  0  0  0  0  0  0  0  0  0
  -30.5349   -9.8704   -6.1199 O   0  0  0  0  0  0  0  0  0  0  0  0
  -32.7553   -8.9238   -6.8480 O   0  0  0  0  0  0  0  0  0  0  0  0
  -31.1515   -9.8725   -8.6646 C   0  0  0  0  0  0  0  0  0  0  0  0
  -30.0112  -10.8965   -8.6361 C   0  0  0  0  0  0  0  0  0  0  0  0
  -28.4691  -10.4623   -9.6620 Si  0  0  0  0  0  0  0  0  0  0  0  0
  -27.7997   -8.8054   -9.0842 C   0  0  0  0  0  0  0  0  0  0  0  0
  -27.1766  -11.7967   -9.4168 C   0  0  0  0  0  0  0  0  0  0  0  0
  -28.9089  -10.3468  -11.4806 C   0  0  0  0  0  0  0  0  0  0  0  0
  -31.4480   -6.4245   -4.9853 C   0  0  0  0  0  0  0  0  0  0  0  0
  -31.1305   -5.8814   -3.6061 C   0  0  0  0  0  0  0  0  0  0  0  0
  -30.5116   -6.8934   -2.8167 O   0  0  0  0  0  0  0  0  0  0  0  0
  -31.1831   -7.5609   -2.5941 H   0  0  0  0  0  0  0  0  0  0  0  0
  -27.5296   -1.6721   -8.1047 N   0  0  0  0  0  0  0  0  0  0  0  0
  -27.6123   -0.8022   -7.6021 H   0  0  0  0  0  0  0  0  0  0  0  0
  -25.7958   -1.6106  -11.2720 C   0  0  0  0  0  0  0  0  0  0  0  0
  -25.9631   -1.6152   -9.9214 N   0  0  0  0  0  0  0  0  0  0  0  0
  -27.2179   -1.4692   -9.4531 C   0  0  0  0  0  0  0  0  0  0  0  0
  -28.2532   -1.1788  -10.2543 N   0  0  0  0  0  0  0  0  0  0  0  0
  -28.0713   -1.1557  -11.5611 C   0  0  0  0  0  0  0  0  0  0  0  0
  -26.8720   -1.4587  -12.1487 C   0  0  0  0  0  0  0  0  0  0  0  0
  -26.9804   -1.8644  -13.9829 Br  0  0  0  0  0  0  0  0  0  0  0  0
  -24.5223   -1.9308  -11.7610 O   0  0  0  0  0  0  0  0  0  0  0  0
  -23.5782   -0.8353  -11.9844 C   0  0  0  0  0  0  0  0  0  0  0  0
  -24.2788    0.5243  -11.8627 C   0  0  0  0  0  0  0  0  0  0  0  0
  -21.9734    0.1887  -13.7662 C   0  0  0  0  0  0  0  0  0  0  0  0
  -22.9873   -0.9017  -13.4400 C   0  0  0  0  0  0  0  0  0  0  0  0
  -24.0132   -0.8256  -14.4377 O   0  0  0  0  0  0  0  0  0  0  0  0
  -24.4958    0.0043  -14.2930 H   0  0  0  0  0  0  0  0  0  0  0  0
 36 33  1  0  0  0
 36 37  1  0  0  0
 36 35  1  0  0  0
 37 38  1  0  0  0
 33 34  1  0  0  0
 33 32  1  0  0  0
 32 25  1  0  0  0
 25 26  1  0  0  0
 25 30  2  0  0  0
 26 27  2  0  0  0
 27 23  1  0  0  0
 27 28  1  0  0  0
 23  1  1  0  0  0
 23 24  1  0  0  0
  1  2  1  0  0  0
  1  6  2  0  0  0
  2  3  2  0  0  0
  3  4  1  0  0  0
  4  7  1  0  0  0
  4  5  2  0  0  0
  7  8  2  0  0  0
  7 19  1  0  0  0
  7  9  2  0  0  0
 19 20  1  0  0  0
 20 21  1  0  0  0
 21 22  1  0  0  0
  9 10  1  0  0  0
 10 11  2  0  0  0
 10 12  2  0  0  0
 10 13  1  0  0  0
 13 14  1  0  0  0
 14 15  1  0  0  0
 15 16  1  0  0  0
 15 17  1  0  0  0
 15 18  1  0  0  0
  5  6  1  0  0  0
 28 29  2  0  0  0
 29 30  1  0  0  0
 30 31  1  0  0  0
M  END
> <minimizedAffinity>
-8.71191

$$$$
