CHEMBL1084451


 46 52  0  0  0  0  0  0  0  0999 V2000
  -12.4489   -1.4498  -15.1674 C   0  0  0  0  0  0  0  0  0  0  0  0
  -11.4459   -1.6703  -14.1955 C   0  0  0  0  0  0  0  0  0  0  0  0
  -10.8529   -0.6215  -13.4971 C   0  0  0  0  0  0  0  0  0  0  0  0
  -11.3048    0.6517  -13.7484 C   0  0  0  0  0  0  0  0  0  0  0  0
  -12.2677    0.9229  -14.6456 N   0  0  0  0  0  0  0  0  0  0  0  0
  -12.7886   -0.1031  -15.3787 C   0  0  0  0  0  0  0  0  0  0  0  0
  -13.7544   -4.8217  -15.6830 C   0  0  0  0  0  0  0  0  0  0  0  0
  -13.7299   -5.0071  -17.0034 N   0  0  0  0  0  0  0  0  0  0  0  0
  -13.3945   -3.9567  -17.7686 C   0  0  0  0  0  0  0  0  0  0  0  0
  -13.0026   -2.7419  -17.2643 C   0  0  0  0  0  0  0  0  0  0  0  0
  -12.9951   -2.6289  -15.8905 C   0  0  0  0  0  0  0  0  0  0  0  0
  -13.4019   -3.6663  -15.0977 N   0  0  0  0  0  0  0  0  0  0  0  0
  -14.0939   -5.9398  -14.9477 N   0  0  0  0  0  0  0  0  0  0  0  0
  -13.9770   -6.7443  -15.5530 H   0  0  0  0  0  0  0  0  0  0  0  0
  -13.5603   -6.1085  -13.6107 C   0  0  0  0  0  0  0  0  0  0  0  0
  -15.3376   -4.9045  -10.6331 N   0  0  0  0  0  0  0  0  0  0  0  0
  -15.8946   -4.8167  -11.9944 C   0  0  0  0  0  0  0  0  0  0  0  0
  -15.9741   -6.1733  -12.6946 C   0  0  0  0  0  0  0  0  0  0  0  0
  -14.6038   -6.8663  -12.7438 C   0  0  0  0  0  0  0  0  0  0  0  0
  -14.1426   -7.0213  -11.2890 C   0  0  0  0  0  0  0  0  0  0  0  0
  -14.0823   -5.6731  -10.5641 C   0  0  0  0  0  0  0  0  0  0  0  0
  -15.8237   -2.4390  -10.8053 C   0  0  0  0  0  0  0  0  0  0  0  0
  -15.1046   -3.5611  -10.0647 C   0  0  0  0  0  0  0  0  0  0  0  0
  -13.6940    0.2432  -16.3886 O   0  0  0  0  0  0  0  0  0  0  0  0
  -14.7074    1.1497  -16.0717 C   0  0  0  0  0  0  0  0  0  0  0  0
  -15.6229    0.8706  -15.0566 C   0  0  0  0  0  0  0  0  0  0  0  0
  -16.7220    1.7006  -14.8579 C   0  0  0  0  0  0  0  0  0  0  0  0
  -16.9138    2.8602  -15.6208 C   0  0  0  0  0  0  0  0  0  0  0  0
  -15.8537    3.2857  -16.4816 C   0  0  0  0  0  0  0  0  0  0  0  0
  -15.8280    4.5612  -17.1051 C   0  0  0  0  0  0  0  0  0  0  0  0
  -14.7983    4.9454  -17.9659 C   0  0  0  0  0  0  0  0  0  0  0  0
  -13.7702    4.0627  -18.2438 C   0  0  0  0  0  0  0  0  0  0  0  0
  -13.7519    2.8035  -17.6380 C   0  0  0  0  0  0  0  0  0  0  0  0
  -14.7592    2.4002  -16.7345 C   0  0  0  0  0  0  0  0  0  0  0  0
  -18.1384    3.5896  -15.5272 N   0  0  0  0  0  0  0  0  0  0  0  0
  -18.1949    4.3329  -16.2081 H   0  0  0  0  0  0  0  0  0  0  0  0
  -19.3163    3.0772  -15.0862 C   0  0  0  0  0  0  0  0  0  0  0  0
  -20.3676    3.6719  -14.5678 N   0  0  0  0  0  0  0  0  0  0  0  0
  -21.2782    2.6861  -14.2992 C   0  0  0  0  0  0  0  0  0  0  0  0
  -22.5657    2.7810  -13.7532 C   0  0  0  0  0  0  0  0  0  0  0  0
  -23.3212    1.6119  -13.6108 C   0  0  0  0  0  0  0  0  0  0  0  0
  -22.7991    0.3735  -13.9961 C   0  0  0  0  0  0  0  0  0  0  0  0
  -21.5069    0.2579  -14.5253 C   0  0  0  0  0  0  0  0  0  0  0  0
  -20.7793    1.4419  -14.6612 C   0  0  0  0  0  0  0  0  0  0  0  0
  -19.5206    1.7169  -15.1342 N   0  0  0  0  0  0  0  0  0  0  0  0
  -18.8682    1.0422  -15.4971 H   0  0  0  0  0  0  0  0  0  0  0  0
 22 23  1  0  0  0
 23 16  1  0  0  0
 16 17  1  0  0  0
 16 21  1  0  0  0
 17 18  1  0  0  0
 18 19  1  0  0  0
 19 15  1  0  0  0
 19 20  1  0  0  0
 15 13  1  0  0  0
 13  7  1  0  0  0
 13 14  1  0  0  0
  7  8  1  0  0  0
  7 12  2  0  0  0
  8  9  2  0  0  0
  9 10  1  0  0  0
 10 11  2  0  0  0
 11  1  1  0  0  0
 11 12  1  0  0  0
  1  2  1  0  0  0
  1  6  2  0  0  0
  2  3  2  0  0  0
  3  4  1  0  0  0
  4  5  2  0  0  0
  5  6  1  0  0  0
  6 24  1  0  0  0
 24 25  1  0  0  0
 25 26  1  0  0  0
 25 34  2  0  0  0
 26 27  2  0  0  0
 27 28  1  0  0  0
 28 35  1  0  0  0
 28 29  2  0  0  0
 35 37  1  0  0  0
 35 36  1  0  0  0
 37 38  2  0  0  0
 37 45  1  0  0  0
 38 39  1  0  0  0
 39 40  1  0  0  0
 39 44  2  0  0  0
 40 41  2  0  0  0
 41 42  1  0  0  0
 42 43  2  0  0  0
 43 44  1  0  0  0
 44 45  1  0  0  0
 45 46  1  0  0  0
 29 30  1  0  0  0
 29 34  1  0  0  0
 30 31  2  0  0  0
 31 32  1  0  0  0
 32 33  2  0  0  0
 33 34  1  0  0  0
 20 21  1  0  0  0
M  END
> <minimizedAffinity>
-9.87682

$$$$
