CHEMBL4470636


 32 35  0  0  0  0  0  0  0  0999 V2000
  -17.3703    1.7742  -14.9822 C   0  0  0  0  0  0  0  0  0  0  0  0
  -16.3575    2.1288  -15.7905 N   0  0  0  0  0  0  0  0  0  0  0  0
  -15.1334    1.7088  -15.4542 C   0  0  0  0  0  0  0  0  0  0  0  0
  -14.8814    0.9622  -14.3344 C   0  0  0  0  0  0  0  0  0  0  0  0
  -15.9728    0.6397  -13.5485 C   0  0  0  0  0  0  0  0  0  0  0  0
  -17.2307    1.0334  -13.8700 N   0  0  0  0  0  0  0  0  0  0  0  0
  -15.7237   -0.1997  -12.4370 N   0  0  0  0  0  0  0  0  0  0  0  0
  -15.9203    0.2265  -11.5410 H   0  0  0  0  0  0  0  0  0  0  0  0
  -15.6189   -1.5956  -12.4286 C   0  0  0  0  0  0  0  0  0  0  0  0
  -15.7257   -2.3121  -11.2387 C   0  0  0  0  0  0  0  0  0  0  0  0
  -15.5890   -3.7006  -11.2167 C   0  0  0  0  0  0  0  0  0  0  0  0
  -15.3275   -4.4349  -12.3783 C   0  0  0  0  0  0  0  0  0  0  0  0
  -15.2248   -3.7038  -13.5708 C   0  0  0  0  0  0  0  0  0  0  0  0
  -15.3688   -2.3077  -13.6020 C   0  0  0  0  0  0  0  0  0  0  0  0
  -15.2124   -5.8050  -12.3403 N   0  0  0  0  0  0  0  0  0  0  0  0
  -14.5371   -6.5166  -11.2479 C   0  0  0  0  0  0  0  0  0  0  0  0
  -13.5718   -7.5494  -11.8541 C   0  0  0  0  0  0  0  0  0  0  0  0
  -14.2542   -8.4581  -12.7354 O   0  0  0  0  0  0  0  0  0  0  0  0
  -14.8637   -7.7375  -13.8207 C   0  0  0  0  0  0  0  0  0  0  0  0
  -15.8685   -6.6915  -13.3141 C   0  0  0  0  0  0  0  0  0  0  0  0
  -18.9544    2.3491  -15.5374 S   0  0  0  0  0  0  0  0  0  0  0  0
  -20.1108    1.0858  -14.9287 C   0  0  0  0  0  0  0  0  0  0  0  0
  -21.3590    1.7488  -14.3303 C   0  0  0  0  0  0  0  0  0  0  0  0
  -21.5789    2.9606  -14.3506 O   0  0  0  0  0  0  0  0  0  0  0  0
  -24.2775   -0.8231  -12.4674 C   0  0  0  0  0  0  0  0  0  0  0  0
  -23.2701   -1.3612  -13.2714 C   0  0  0  0  0  0  0  0  0  0  0  0
  -22.3307   -0.5144  -13.8739 C   0  0  0  0  0  0  0  0  0  0  0  0
  -22.3883    0.8775  -13.6776 C   0  0  0  0  0  0  0  0  0  0  0  0
  -23.4034    1.4077  -12.8752 C   0  0  0  0  0  0  0  0  0  0  0  0
  -24.3415    0.5606  -12.2734 C   0  0  0  0  0  0  0  0  0  0  0  0
  -26.0100   -2.3756  -11.3235 N   0  0  0  0  0  0  0  0  0  0  0  0
  -25.2408   -1.6814  -11.8385 C   0  0  0  0  0  0  0  0  0  0  0  0
 31 32  3  0  0  0
 32 25  1  0  0  0
 25 26  1  0  0  0
 25 30  2  0  0  0
 26 27  2  0  0  0
 27 28  1  0  0  0
 28 23  1  0  0  0
 28 29  2  0  0  0
 23 24  2  0  0  0
 23 22  1  0  0  0
 22 21  1  0  0  0
 21  1  1  0  0  0
  1  2  1  0  0  0
  1  6  2  0  0  0
  2  3  2  0  0  0
  3  4  1  0  0  0
  4  5  2  0  0  0
  5  7  1  0  0  0
  5  6  1  0  0  0
  7  9  1  0  0  0
  7  8  1  0  0  0
  9 10  1  0  0  0
  9 14  2  0  0  0
 10 11  2  0  0  0
 11 12  1  0  0  0
 12 15  1  0  0  0
 12 13  2  0  0  0
 15 16  1  0  0  0
 15 20  1  0  0  0
 16 17  1  0  0  0
 17 18  1  0  0  0
 18 19  1  0  0  0
 19 20  1  0  0  0
 13 14  1  0  0  0
 29 30  1  0  0  0
M  END
> <minimizedAffinity>
-8.86846

$$$$
