CHEMBL3690520


 36 39  0  0  0  0  0  0  0  0999 V2000
  -14.4817   -3.0337  -13.6992 C   0  0  0  0  0  0  0  0  0  0  0  0
  -13.3404   -2.5069  -14.4913 C   0  0  0  0  0  0  0  0  0  0  0  0
  -13.4321   -1.2816  -15.0685 C   0  0  0  0  0  0  0  0  0  0  0  0
  -14.5008   -0.4402  -14.6708 N   0  0  0  0  0  0  0  0  0  0  0  0
  -14.6679    0.9691  -14.7122 C   0  0  0  0  0  0  0  0  0  0  0  0
  -14.0858    1.1188  -13.4391 C   0  0  0  0  0  0  0  0  0  0  0  0
  -14.6642    0.1659  -12.6091 N   0  0  0  0  0  0  0  0  0  0  0  0
  -15.1094   -0.7654  -13.4542 C   0  0  0  0  0  0  0  0  0  0  0  0
  -15.4006   -2.1396  -13.2563 C   0  0  0  0  0  0  0  0  0  0  0  0
  -13.6936   -6.6350  -10.6814 N   0  0  0  0  0  0  0  0  0  0  0  0
  -14.2541   -6.2057  -11.8860 C   0  0  0  0  0  0  0  0  0  0  0  0
  -14.1784   -4.8901  -12.1470 N   0  0  0  0  0  0  0  0  0  0  0  0
  -14.6356   -4.4704  -13.3483 C   0  0  0  0  0  0  0  0  0  0  0  0
  -15.1801   -5.2750  -14.2842 N   0  0  0  0  0  0  0  0  0  0  0  0
  -15.2329   -6.5879  -13.9800 C   0  0  0  0  0  0  0  0  0  0  0  0
  -14.7712   -7.1070  -12.7969 C   0  0  0  0  0  0  0  0  0  0  0  0
  -14.8438   -8.4196  -12.5385 F   0  0  0  0  0  0  0  0  0  0  0  0
  -13.4704   -5.8294  -10.1045 H   0  0  0  0  0  0  0  0  0  0  0  0
  -14.2513   -7.3369  -10.2081 H   0  0  0  0  0  0  0  0  0  0  0  0
  -16.0232    1.6304  -14.9923 C   0  0  0  0  0  0  0  0  0  0  0  0
  -16.0895    2.8675  -15.6057 C   0  0  0  0  0  0  0  0  0  0  0  0
  -17.2329    3.4326  -16.0687 N   0  0  0  0  0  0  0  0  0  0  0  0
  -18.3770    2.7187  -15.9280 C   0  0  0  0  0  0  0  0  0  0  0  0
  -18.4476    1.4715  -15.3112 C   0  0  0  0  0  0  0  0  0  0  0  0
  -17.2384    0.9402  -14.8331 C   0  0  0  0  0  0  0  0  0  0  0  0
  -19.6868    0.7484  -15.1764 N   0  0  0  0  0  0  0  0  0  0  0  0
  -20.8080    1.2034  -14.5245 C   0  0  0  0  0  0  0  0  0  0  0  0
  -20.9466    2.2969  -13.9875 O   0  0  0  0  0  0  0  0  0  0  0  0
  -21.8170    0.2734  -14.4588 N   0  0  0  0  0  0  0  0  0  0  0  0
  -19.6980   -0.1818  -15.5566 H   0  0  0  0  0  0  0  0  0  0  0  0
  -21.9058   -0.3619  -15.2396 H   0  0  0  0  0  0  0  0  0  0  0  0
  -23.0682    0.6586  -13.7749 C   0  0  0  0  0  0  0  0  0  0  0  0
  -23.3803   -0.0885  -12.4695 C   0  0  0  0  0  0  0  0  0  0  0  0
  -23.9901   -1.2746  -12.6965 F   0  0  0  0  0  0  0  0  0  0  0  0
  -22.2279   -0.3622  -11.8068 F   0  0  0  0  0  0  0  0  0  0  0  0
  -24.1588    0.6330  -11.6366 F   0  0  0  0  0  0  0  0  0  0  0  0
 10 11  1  0  0  0
 10 18  1  0  0  0
 10 19  1  0  0  0
 11 12  1  0  0  0
 11 16  2  0  0  0
 12 13  2  0  0  0
 13  1  1  0  0  0
 13 14  1  0  0  0
  1  2  1  0  0  0
  1  9  2  0  0  0
  2  3  2  0  0  0
  3  4  1  0  0  0
  4  5  1  0  0  0
  4  8  1  0  0  0
  5 20  1  0  0  0
  5  6  2  0  0  0
 20 21  1  0  0  0
 20 25  2  0  0  0
 21 22  2  0  0  0
 22 23  1  0  0  0
 23 24  2  0  0  0
 24 26  1  0  0  0
 24 25  1  0  0  0
 26 27  1  0  0  0
 26 30  1  0  0  0
 27 28  2  0  0  0
 27 29  1  0  0  0
 29 32  1  0  0  0
 29 31  1  0  0  0
 32 33  1  0  0  0
 33 34  1  0  0  0
 33 35  1  0  0  0
 33 36  1  0  0  0
  6  7  1  0  0  0
  7  8  2  0  0  0
  8  9  1  0  0  0
 14 15  2  0  0  0
 15 16  1  0  0  0
 16 17  1  0  0  0
M  END
> <minimizedAffinity>
-9.70875

$$$$
