CHEMBL427998


 32 34  0  0  0  0  0  0  0  0999 V2000
  -28.6062  -12.2351   -6.7763 C   0  0  0  0  0  0  0  0  0  0  0  0
  -28.7116  -10.8720   -6.1487 C   0  0  0  0  0  0  0  0  0  0  0  0
  -28.9252  -10.7835   -4.7660 C   0  0  0  0  0  0  0  0  0  0  0  0
  -29.0665   -9.5410   -4.1523 C   0  0  0  0  0  0  0  0  0  0  0  0
  -28.9998   -8.3625   -4.9072 C   0  0  0  0  0  0  0  0  0  0  0  0
  -28.7560   -8.4322   -6.2827 C   0  0  0  0  0  0  0  0  0  0  0  0
  -28.6196   -9.6866   -6.9074 C   0  0  0  0  0  0  0  0  0  0  0  0
  -29.1578   -7.0824   -4.1624 C   0  0  0  0  0  0  0  0  0  0  0  0
  -29.4686   -7.1735   -2.9759 O   0  0  0  0  0  0  0  0  0  0  0  0
  -29.0378   -5.9085   -4.8875 N   0  0  0  0  0  0  0  0  0  0  0  0
  -28.9691   -5.9866   -5.8938 H   0  0  0  0  0  0  0  0  0  0  0  0
  -29.3099   -4.6134   -4.3680 C   0  0  0  0  0  0  0  0  0  0  0  0
  -30.3738   -4.3557   -3.4969 C   0  0  0  0  0  0  0  0  0  0  0  0
  -30.6725   -3.0568   -3.0847 C   0  0  0  0  0  0  0  0  0  0  0  0
  -29.9102   -1.9897   -3.5435 C   0  0  0  0  0  0  0  0  0  0  0  0
  -28.8244   -2.2174   -4.3997 C   0  0  0  0  0  0  0  0  0  0  0  0
  -28.5084   -3.5409   -4.7784 C   0  0  0  0  0  0  0  0  0  0  0  0
  -28.0371   -1.0548   -4.9528 C   0  0  0  0  0  0  0  0  0  0  0  0
  -28.2948   -0.7957   -6.2657 F   0  0  0  0  0  0  0  0  0  0  0  0
  -28.2784    0.1084   -4.2881 F   0  0  0  0  0  0  0  0  0  0  0  0
  -26.6920   -1.2581   -4.8743 F   0  0  0  0  0  0  0  0  0  0  0  0
  -28.4030   -9.7393   -8.3295 C   0  0  0  0  0  0  0  0  0  0  0  0
  -28.2201   -9.7434   -9.5183 C   0  0  0  0  0  0  0  0  0  0  0  0
  -27.9695   -9.7149  -10.9251 C   0  0  0  0  0  0  0  0  0  0  0  0
  -28.8498  -10.2127  -11.8593 C   0  0  0  0  0  0  0  0  0  0  0  0
  -28.6463  -10.1427  -13.1960 N   0  0  0  0  0  0  0  0  0  0  0  0
  -27.5246   -9.5365  -13.5991 C   0  0  0  0  0  0  0  0  0  0  0  0
  -27.3164   -9.4002  -14.9528 N   0  0  0  0  0  0  0  0  0  0  0  0
  -26.5829   -9.0572  -12.7791 N   0  0  0  0  0  0  0  0  0  0  0  0
  -26.8315   -9.1519  -11.4541 C   0  0  0  0  0  0  0  0  0  0  0  0
  -27.8335  -10.0958  -15.4699 H   0  0  0  0  0  0  0  0  0  0  0  0
  -26.3328   -9.2926  -15.1529 H   0  0  0  0  0  0  0  0  0  0  0  0
  1  2  1  0  0  0
  2  3  1  0  0  0
  2  7  2  0  0  0
  3  4  2  0  0  0
  4  5  1  0  0  0
  5  8  1  0  0  0
  5  6  2  0  0  0
  8  9  2  0  0  0
  8 10  1  0  0  0
 10 12  1  0  0  0
 10 11  1  0  0  0
 12 13  1  0  0  0
 12 17  2  0  0  0
 13 14  2  0  0  0
 14 15  1  0  0  0
 15 16  2  0  0  0
 16 18  1  0  0  0
 16 17  1  0  0  0
 18 19  1  0  0  0
 18 20  1  0  0  0
 18 21  1  0  0  0
  6  7  1  0  0  0
  7 22  1  0  0  0
 22 23  3  0  0  0
 23 24  1  0  0  0
 24 25  1  0  0  0
 24 30  2  0  0  0
 25 26  2  0  0  0
 26 27  1  0  0  0
 27 28  1  0  0  0
 27 29  2  0  0  0
 28 31  1  0  0  0
 28 32  1  0  0  0
 29 30  1  0  0  0
M  END
> <minimizedAffinity>
-7.52681

$$$$
