CHEMBL3893363


 33 37  0  0  0  0  0  0  0  0999 V2000
  -27.4411  -10.0241   -4.6144 C   0  0  0  0  0  0  0  0  0  0  0  0
  -28.4707   -9.1230   -4.8892 C   0  0  0  0  0  0  0  0  0  0  0  0
  -29.2872   -9.2717   -6.0272 C   0  0  0  0  0  0  0  0  0  0  0  0
  -30.3181   -8.3922   -6.3754 C   0  0  0  0  0  0  0  0  0  0  0  0
  -31.1118   -8.6178   -7.4400 N   0  0  0  0  0  0  0  0  0  0  0  0
  -30.8620   -9.7074   -8.1610 C   0  0  0  0  0  0  0  0  0  0  0  0
  -29.8872  -10.5974   -7.9362 N   0  0  0  0  0  0  0  0  0  0  0  0
  -29.1112  -10.3724   -6.8721 C   0  0  0  0  0  0  0  0  0  0  0  0
  -28.0777  -11.2598   -6.5983 C   0  0  0  0  0  0  0  0  0  0  0  0
  -27.2101  -11.0781   -5.5124 C   0  0  0  0  0  0  0  0  0  0  0  0
  -25.7080   -8.8322   -3.5028 C   0  0  0  0  0  0  0  0  0  0  0  0
  -26.6228   -9.9269   -3.5186 O   0  0  0  0  0  0  0  0  0  0  0  0
  -30.5204   -7.2064   -5.6075 N   0  0  0  0  0  0  0  0  0  0  0  0
  -30.3065   -7.4047   -4.6381 H   0  0  0  0  0  0  0  0  0  0  0  0
  -30.0564   -5.9366   -6.0216 C   0  0  0  0  0  0  0  0  0  0  0  0
  -29.4115   -5.7991   -7.2571 C   0  0  0  0  0  0  0  0  0  0  0  0
  -28.8180   -4.5935   -7.6259 C   0  0  0  0  0  0  0  0  0  0  0  0
  -28.8786   -3.4989   -6.7629 C   0  0  0  0  0  0  0  0  0  0  0  0
  -27.9396   -1.9329   -7.2799 Br  0  0  0  0  0  0  0  0  0  0  0  0
  -29.5863   -3.6013   -5.5600 C   0  0  0  0  0  0  0  0  0  0  0  0
  -29.7309   -2.2813   -4.4535 Cl  0  0  0  0  0  0  0  0  0  0  0  0
  -30.1842   -4.8157   -5.1972 C   0  0  0  0  0  0  0  0  0  0  0  0
  -26.1227  -11.8883   -5.2711 O   0  0  0  0  0  0  0  0  0  0  0  0
  -24.9245  -11.6221   -6.0211 C   0  0  0  0  0  0  0  0  0  0  0  0
  -25.0128  -10.3369   -6.8533 C   0  0  0  0  0  0  0  0  0  0  0  0
  -23.9291   -9.4646   -6.4980 O   0  0  0  0  0  0  0  0  0  0  0  0
  -22.9975  -10.2218   -5.7310 C   0  0  0  0  0  0  0  0  0  0  0  0
  -21.9901  -10.9644   -6.5999 C   0  0  0  0  0  0  0  0  0  0  0  0
  -20.8196  -10.2161   -6.8988 O   0  0  0  0  0  0  0  0  0  0  0  0
  -21.7000  -12.1962   -5.7600 C   0  0  0  0  0  0  0  0  0  0  0  0
  -22.8654  -12.4631   -4.9603 O   0  0  0  0  0  0  0  0  0  0  0  0
  -23.7628  -11.3419   -5.0646 C   0  0  0  0  0  0  0  0  0  0  0  0
  -20.5160   -9.7690   -6.0904 H   0  0  0  0  0  0  0  0  0  0  0  0
 11 12  1  0  0  0
 12  1  1  0  0  0
  1  2  1  0  0  0
  1 10  2  0  0  0
  2  3  2  0  0  0
  3  4  1  0  0  0
  3  8  1  0  0  0
  4 13  1  0  0  0
  4  5  2  0  0  0
 13 15  1  0  0  0
 13 14  1  0  0  0
 15 16  1  0  0  0
 15 22  2  0  0  0
 16 17  2  0  0  0
 17 18  1  0  0  0
 18 19  1  0  0  0
 18 20  2  0  0  0
 20 21  1  0  0  0
 20 22  1  0  0  0
  5  6  1  0  0  0
  6  7  2  0  0  0
  7  8  1  0  0  0
  8  9  2  0  0  0
  9 10  1  0  0  0
 10 23  1  0  0  0
 24 25  1  0  0  0
 24 32  1  0  0  0
 24 23  1  0  0  0
 25 26  1  0  0  0
 26 27  1  0  0  0
 27 28  1  0  0  0
 27 32  1  0  0  0
 28 29  1  0  0  0
 28 30  1  0  0  0
 29 33  1  0  0  0
 30 31  1  0  0  0
 31 32  1  0  0  0
M  END
> <minimizedAffinity>
-7.67493

$$$$
