CHEMBL375491


 36 41  0  0  0  0  0  0  0  0999 V2000
  -12.9439   -0.8395  -16.6856 C   0  0  0  0  0  0  0  0  0  0  0  0
  -12.7616   -1.3214  -18.0092 C   0  0  0  0  0  0  0  0  0  0  0  0
  -12.4786   -0.4672  -19.0765 C   0  0  0  0  0  0  0  0  0  0  0  0
  -12.4289    0.8746  -18.8011 C   0  0  0  0  0  0  0  0  0  0  0  0
  -12.6640    1.4020  -17.5028 C   0  0  0  0  0  0  0  0  0  0  0  0
  -12.8983    0.5452  -16.4353 C   0  0  0  0  0  0  0  0  0  0  0  0
  -12.6470    2.9455  -17.4700 C   0  0  0  0  0  0  0  0  0  0  0  0
  -12.3429    3.1669  -18.9151 C   0  0  0  0  0  0  0  0  0  0  0  0
  -12.2029    4.1858  -19.8699 C   0  0  0  0  0  0  0  0  0  0  0  0
  -11.9333    3.6665  -21.0897 N   0  0  0  0  0  0  0  0  0  0  0  0
  -11.9425    2.3230  -20.9013 N   0  0  0  0  0  0  0  0  0  0  0  0
  -12.2094    2.0072  -19.6240 C   0  0  0  0  0  0  0  0  0  0  0  0
  -11.7722    1.7149  -21.6949 H   0  0  0  0  0  0  0  0  0  0  0  0
  -12.3641    5.6592  -19.6535 C   0  0  0  0  0  0  0  0  0  0  0  0
  -13.5112    6.3655  -19.9611 C   0  0  0  0  0  0  0  0  0  0  0  0
  -13.4111    7.7352  -19.5872 C   0  0  0  0  0  0  0  0  0  0  0  0
  -12.1846    8.0353  -19.0409 C   0  0  0  0  0  0  0  0  0  0  0  0
  -11.1674    6.6654  -18.9627 S   0  0  0  0  0  0  0  0  0  0  0  0
  -14.4381    8.7162  -19.7283 C   0  0  0  0  0  0  0  0  0  0  0  0
  -15.3212    9.6571  -19.9150 C   0  0  0  0  0  0  0  0  0  0  0  0
  -16.3507   10.7541  -20.1324 C   0  0  0  0  0  0  0  0  0  0  0  0
  -15.8855   11.6902  -21.0958 O   0  0  0  0  0  0  0  0  0  0  0  0
  -14.5231   11.8276  -21.1703 C   0  0  0  0  0  0  0  0  0  0  0  0
  -13.6830   12.2525  -20.1360 C   0  0  0  0  0  0  0  0  0  0  0  0
  -12.3051   12.3562  -20.3428 C   0  0  0  0  0  0  0  0  0  0  0  0
  -11.7587   12.0358  -21.5827 C   0  0  0  0  0  0  0  0  0  0  0  0
  -12.5889   11.6095  -22.6170 C   0  0  0  0  0  0  0  0  0  0  0  0
  -13.9661   11.5065  -22.4096 C   0  0  0  0  0  0  0  0  0  0  0  0
  -13.1837   -1.8266  -15.5549 C   0  0  0  0  0  0  0  0  0  0  0  0
  -12.9893   -5.6233  -12.6310 C   0  0  0  0  0  0  0  0  0  0  0  0
  -12.3963   -4.3135  -12.8851 N   0  0  0  0  0  0  0  0  0  0  0  0
  -11.7705   -4.2690  -14.2166 C   0  0  0  0  0  0  0  0  0  0  0  0
  -11.1886   -2.8700  -14.5213 C   0  0  0  0  0  0  0  0  0  0  0  0
  -12.1814   -1.7740  -14.4742 N   0  0  0  0  0  0  0  0  0  0  0  0
  -12.8396   -1.8391  -13.1456 C   0  0  0  0  0  0  0  0  0  0  0  0
  -13.3945   -3.2356  -12.7501 C   0  0  0  0  0  0  0  0  0  0  0  0
 30 31  1  0  0  0
 31 32  1  0  0  0
 31 36  1  0  0  0
 32 33  1  0  0  0
 33 34  1  0  0  0
 34 29  1  0  0  0
 34 35  1  0  0  0
 29  1  1  0  0  0
  1  2  1  0  0  0
  1  6  2  0  0  0
  2  3  2  0  0  0
  3  4  1  0  0  0
  4  5  2  0  0  0
  4 12  1  0  0  0
  5  6  1  0  0  0
  5  7  1  0  0  0
  7  8  1  0  0  0
  8  9  1  0  0  0
  8 12  2  0  0  0
  9 14  1  0  0  0
  9 10  2  0  0  0
 14 15  2  0  0  0
 14 18  1  0  0  0
 15 16  1  0  0  0
 16 19  1  0  0  0
 16 17  2  0  0  0
 19 20  3  0  0  0
 20 21  1  0  0  0
 21 22  1  0  0  0
 22 23  1  0  0  0
 23 24  1  0  0  0
 23 28  2  0  0  0
 24 25  2  0  0  0
 25 26  1  0  0  0
 26 27  2  0  0  0
 27 28  1  0  0  0
 17 18  1  0  0  0
 10 11  1  0  0  0
 11 12  1  0  0  0
 11 13  1  0  0  0
 35 36  1  0  0  0
M  END
> <minimizedAffinity>
-3.24701

$$$$
