CHEMBL176078


 29 32  0  0  0  0  0  0  0  0999 V2000
  -29.4854   -5.4337   -5.3735 C   0  0  0  0  0  0  0  0  0  0  0  0
  -30.1239   -5.5066   -4.2135 N   0  0  0  0  0  0  0  0  0  0  0  0
  -30.0564   -6.6841   -3.6220 C   0  0  0  0  0  0  0  0  0  0  0  0
  -30.6969   -6.7491   -2.4243 O   0  0  0  0  0  0  0  0  0  0  0  0
  -29.4599   -7.7836   -4.0464 N   0  0  0  0  0  0  0  0  0  0  0  0
  -28.8314   -7.6133   -5.1933 C   0  0  0  0  0  0  0  0  0  0  0  0
  -28.8216   -6.4687   -5.8694 N   0  0  0  0  0  0  0  0  0  0  0  0
  -30.9797   -5.8221   -2.3524 H   0  0  0  0  0  0  0  0  0  0  0  0
  -28.1683   -8.7218   -5.7309 N   0  0  0  0  0  0  0  0  0  0  0  0
  -28.8428   -9.4318   -5.9864 H   0  0  0  0  0  0  0  0  0  0  0  0
  -26.8904   -9.2107   -5.3997 C   0  0  0  0  0  0  0  0  0  0  0  0
  -26.2979   -8.8013   -4.2018 C   0  0  0  0  0  0  0  0  0  0  0  0
  -25.0247   -9.2549   -3.8262 C   0  0  0  0  0  0  0  0  0  0  0  0
  -24.3175  -10.1346   -4.6686 C   0  0  0  0  0  0  0  0  0  0  0  0
  -23.0496  -10.6452   -4.4398 N   0  0  0  0  0  0  0  0  0  0  0  0
  -22.7076  -11.4266   -5.4388 C   0  0  0  0  0  0  0  0  0  0  0  0
  -23.8576  -11.6161   -6.6911 S   0  0  0  0  0  0  0  0  0  0  0  0
  -24.9209  -10.5490   -5.8552 C   0  0  0  0  0  0  0  0  0  0  0  0
  -26.1993  -10.1073   -6.2306 C   0  0  0  0  0  0  0  0  0  0  0  0
  -29.4965   -4.2455   -6.0996 N   0  0  0  0  0  0  0  0  0  0  0  0
  -28.3600   -3.5849   -8.1752 C   0  0  0  0  0  0  0  0  0  0  0  0
  -29.5159   -4.3626   -7.5627 C   0  0  0  0  0  0  0  0  0  0  0  0
  -30.2451   -3.1426   -5.5002 C   0  0  0  0  0  0  0  0  0  0  0  0
  -29.4168   -1.9007   -5.2293 C   0  0  0  0  0  0  0  0  0  0  0  0
  -28.0448   -1.9668   -4.9475 C   0  0  0  0  0  0  0  0  0  0  0  0
  -27.2746   -0.8040   -4.8710 C   0  0  0  0  0  0  0  0  0  0  0  0
  -27.8659    0.4411   -5.0718 C   0  0  0  0  0  0  0  0  0  0  0  0
  -29.2330    0.5271   -5.3228 C   0  0  0  0  0  0  0  0  0  0  0  0
  -30.0033   -0.6353   -5.4015 C   0  0  0  0  0  0  0  0  0  0  0  0
 21 22  1  0  0  0
 22 20  1  0  0  0
 20 23  1  0  0  0
 20  1  1  0  0  0
 23 24  1  0  0  0
 24 25  1  0  0  0
 24 29  2  0  0  0
 25 26  2  0  0  0
 26 27  1  0  0  0
 27 28  2  0  0  0
 28 29  1  0  0  0
  1  2  1  0  0  0
  1  7  2  0  0  0
  2  3  2  0  0  0
  3  4  1  0  0  0
  3  5  1  0  0  0
  4  8  1  0  0  0
  5  6  2  0  0  0
  6  9  1  0  0  0
  6  7  1  0  0  0
  9 11  1  0  0  0
  9 10  1  0  0  0
 11 12  1  0  0  0
 11 19  2  0  0  0
 12 13  2  0  0  0
 13 14  1  0  0  0
 14 15  1  0  0  0
 14 18  2  0  0  0
 15 16  2  0  0  0
 16 17  1  0  0  0
 17 18  1  0  0  0
 18 19  1  0  0  0
M  END
> <minimizedAffinity>
-8.42656

$$$$
