CHEMBL92973


 22 25  0  0  0  0  0  0  0  0999 V2000
  -27.5284   -2.1385   -9.1537 C   0  0  0  0  0  0  0  0  0  0  0  0
  -28.0763   -3.4842   -8.8061 C   0  0  0  0  0  0  0  0  0  0  0  0
  -28.6135   -3.8287   -7.6726 N   0  0  0  0  0  0  0  0  0  0  0  0
  -28.6818   -2.8492   -6.7119 C   0  0  0  0  0  0  0  0  0  0  0  0
  -29.1451   -2.8439   -5.4050 C   0  0  0  0  0  0  0  0  0  0  0  0
  -28.9515   -1.5127   -4.9745 C   0  0  0  0  0  0  0  0  0  0  0  0
  -28.4045   -0.7287   -5.9016 N   0  0  0  0  0  0  0  0  0  0  0  0
  -28.2221   -1.5478   -6.9649 N   0  0  0  0  0  0  0  0  0  0  0  0
  -27.6454   -1.2171   -8.1853 C   0  0  0  0  0  0  0  0  0  0  0  0
  -25.0412   -1.1058  -14.2598 C   0  0  0  0  0  0  0  0  0  0  0  0
  -25.7011   -1.3594  -12.9360 C   0  0  0  0  0  0  0  0  0  0  0  0
  -27.0429   -1.7501  -12.8635 C   0  0  0  0  0  0  0  0  0  0  0  0
  -27.6421   -1.9974  -11.6253 C   0  0  0  0  0  0  0  0  0  0  0  0
  -26.9060   -1.8562  -10.4435 C   0  0  0  0  0  0  0  0  0  0  0  0
  -25.5659   -1.4639  -10.5128 C   0  0  0  0  0  0  0  0  0  0  0  0
  -24.9684   -1.2164  -11.7512 C   0  0  0  0  0  0  0  0  0  0  0  0
  -29.6906   -3.9819   -4.6772 C   0  0  0  0  0  0  0  0  0  0  0  0
  -31.0403   -4.0480   -4.3261 C   0  0  0  0  0  0  0  0  0  0  0  0
  -31.5064   -5.1782   -3.6737 C   0  0  0  0  0  0  0  0  0  0  0  0
  -30.7314   -6.2350   -3.3528 N   0  0  0  0  0  0  0  0  0  0  0  0
  -29.4298   -6.1521   -3.6947 C   0  0  0  0  0  0  0  0  0  0  0  0
  -28.8698   -5.0648   -4.3482 C   0  0  0  0  0  0  0  0  0  0  0  0
 10 11  1  0  0  0
 11 12  1  0  0  0
 11 16  2  0  0  0
 12 13  2  0  0  0
 13 14  1  0  0  0
 14  1  1  0  0  0
 14 15  2  0  0  0
  1  2  1  0  0  0
  1  9  2  0  0  0
  2  3  2  0  0  0
  3  4  1  0  0  0
  4  5  2  0  0  0
  4  8  1  0  0  0
  5 17  1  0  0  0
  5  6  1  0  0  0
 17 18  1  0  0  0
 17 22  2  0  0  0
 18 19  2  0  0  0
 19 20  1  0  0  0
 20 21  2  0  0  0
 21 22  1  0  0  0
  6  7  2  0  0  0
  7  8  1  0  0  0
  8  9  1  0  0  0
 15 16  1  0  0  0
M  END
> <minimizedAffinity>
-8.67949

$$$$
