CHEMBL495545


 30 34  0  0  0  0  0  0  0  0999 V2000
  -30.4849   -7.5250   -5.3574 N   0  0  0  0  0  0  0  0  0  0  0  0
  -31.2301   -8.0394   -4.9050 H   0  0  0  0  0  0  0  0  0  0  0  0
  -26.7843   -9.6408   -5.2388 C   0  0  0  0  0  0  0  0  0  0  0  0
  -27.6055   -9.6676   -6.3708 C   0  0  0  0  0  0  0  0  0  0  0  0
  -28.8042   -8.9554   -6.4290 C   0  0  0  0  0  0  0  0  0  0  0  0
  -29.2523   -8.2068   -5.3393 C   0  0  0  0  0  0  0  0  0  0  0  0
  -28.4159   -8.1057   -4.2309 C   0  0  0  0  0  0  0  0  0  0  0  0
  -27.2099   -8.8234   -4.1804 C   0  0  0  0  0  0  0  0  0  0  0  0
  -21.8129  -11.5929   -3.7563 C   0  0  0  0  0  0  0  0  0  0  0  0
  -23.0720  -11.5776   -4.4939 N   0  0  0  0  0  0  0  0  0  0  0  0
  -24.2245  -11.6501   -3.5672 C   0  0  0  0  0  0  0  0  0  0  0  0
  -25.5746  -11.6235   -4.3180 C   0  0  0  0  0  0  0  0  0  0  0  0
  -25.6532  -10.4242   -5.1694 N   0  0  0  0  0  0  0  0  0  0  0  0
  -24.5226  -10.2692   -6.0953 C   0  0  0  0  0  0  0  0  0  0  0  0
  -23.1881  -10.3493   -5.3114 C   0  0  0  0  0  0  0  0  0  0  0  0
  -30.6399   -6.1768   -5.0100 C   0  0  0  0  0  0  0  0  0  0  0  0
  -31.4255   -5.8895   -3.9666 N   0  0  0  0  0  0  0  0  0  0  0  0
  -31.4793   -4.5961   -3.5973 C   0  0  0  0  0  0  0  0  0  0  0  0
  -30.7744   -3.5891   -4.2157 C   0  0  0  0  0  0  0  0  0  0  0  0
  -30.0097   -3.9714   -5.2930 C   0  0  0  0  0  0  0  0  0  0  0  0
  -29.9598   -5.2486   -5.6980 N   0  0  0  0  0  0  0  0  0  0  0  0
  -29.1727   -3.0346   -6.0314 C   0  0  0  0  0  0  0  0  0  0  0  0
  -28.2012   -3.2788   -7.0306 C   0  0  0  0  0  0  0  0  0  0  0  0
  -27.6421   -2.1686   -7.5089 N   0  0  0  0  0  0  0  0  0  0  0  0
  -28.2434   -1.1822   -6.8259 N   0  0  0  0  0  0  0  0  0  0  0  0
  -27.9071    0.1022   -7.0790 N   0  0  0  0  0  0  0  0  0  0  0  0
  -28.5610    0.9455   -6.3510 C   0  0  0  0  0  0  0  0  0  0  0  0
  -29.5813    0.6179   -5.3287 C   0  0  0  0  0  0  0  0  0  0  0  0
  -29.8573   -0.6772   -5.1413 C   0  0  0  0  0  0  0  0  0  0  0  0
  -29.1746   -1.6500   -5.9152 C   0  0  0  0  0  0  0  0  0  0  0  0
  9 10  1  0  0  0
 10 11  1  0  0  0
 10 15  1  0  0  0
 11 12  1  0  0  0
 12 13  1  0  0  0
 13  3  1  0  0  0
 13 14  1  0  0  0
  3  4  1  0  0  0
  3  8  2  0  0  0
  4  5  2  0  0  0
  5  6  1  0  0  0
  6  1  1  0  0  0
  6  7  2  0  0  0
  1 16  1  0  0  0
  1  2  1  0  0  0
 16 17  1  0  0  0
 16 21  2  0  0  0
 17 18  2  0  0  0
 18 19  1  0  0  0
 19 20  2  0  0  0
 20 22  1  0  0  0
 20 21  1  0  0  0
 22 23  1  0  0  0
 22 30  2  0  0  0
 23 24  2  0  0  0
 24 25  1  0  0  0
 25 26  1  0  0  0
 25 30  1  0  0  0
 26 27  2  0  0  0
 27 28  1  0  0  0
 28 29  2  0  0  0
 29 30  1  0  0  0
  7  8  1  0  0  0
 14 15  1  0  0  0
M  END
> <minimizedAffinity>
-9.03712

$$$$
