CHEMBL1241487


 28 31  0  0  0  0  0  0  0  0999 V2000
  -29.4676   -4.7649   -6.2620 C   0  0  0  0  0  0  0  0  0  0  0  0
  -28.8749   -3.6315   -6.6823 N   0  0  0  0  0  0  0  0  0  0  0  0
  -29.2064   -2.7046   -5.7611 N   0  0  0  0  0  0  0  0  0  0  0  0
  -29.9450   -3.2176   -4.7251 C   0  0  0  0  0  0  0  0  0  0  0  0
  -30.4090   -2.5411   -3.6577 N   0  0  0  0  0  0  0  0  0  0  0  0
  -31.1037   -3.3426   -2.8365 C   0  0  0  0  0  0  0  0  0  0  0  0
  -31.3402   -4.6600   -2.9702 N   0  0  0  0  0  0  0  0  0  0  0  0
  -30.8507   -5.2992   -4.0517 C   0  0  0  0  0  0  0  0  0  0  0  0
  -31.1082   -6.6619   -4.1081 N   0  0  0  0  0  0  0  0  0  0  0  0
  -30.1227   -4.5648   -5.0027 C   0  0  0  0  0  0  0  0  0  0  0  0
  -31.4615   -6.9942   -3.2177 H   0  0  0  0  0  0  0  0  0  0  0  0
  -30.3712   -7.2205   -4.5192 H   0  0  0  0  0  0  0  0  0  0  0  0
  -29.2393   -9.3601   -9.6210 N   0  0  0  0  0  0  0  0  0  0  0  0
  -29.2370   -8.3089   -8.6903 C   0  0  0  0  0  0  0  0  0  0  0  0
  -30.3836   -8.0316   -7.9517 C   0  0  0  0  0  0  0  0  0  0  0  0
  -30.4631   -6.8704   -7.1756 C   0  0  0  0  0  0  0  0  0  0  0  0
  -29.3861   -5.9782   -7.0874 C   0  0  0  0  0  0  0  0  0  0  0  0
  -28.2419   -6.2402   -7.8563 C   0  0  0  0  0  0  0  0  0  0  0  0
  -28.1895   -7.3779   -8.6655 C   0  0  0  0  0  0  0  0  0  0  0  0
  -27.0916   -7.6259   -9.4508 O   0  0  0  0  0  0  0  0  0  0  0  0
  -29.7550  -10.1802   -9.3255 H   0  0  0  0  0  0  0  0  0  0  0  0
  -28.2935   -9.5613   -9.9406 H   0  0  0  0  0  0  0  0  0  0  0  0
  -26.5305   -6.8331   -9.4407 H   0  0  0  0  0  0  0  0  0  0  0  0
  -28.8056   -1.3230   -5.9223 C   0  0  0  0  0  0  0  0  0  0  0  0
  -27.7416   -0.8620   -4.9268 C   0  0  0  0  0  0  0  0  0  0  0  0
  -27.8646    0.6593   -4.8826 C   0  0  0  0  0  0  0  0  0  0  0  0
  -29.2121    1.0089   -5.5113 C   0  0  0  0  0  0  0  0  0  0  0  0
  -29.9360   -0.3151   -5.7197 C   0  0  0  0  0  0  0  0  0  0  0  0
 13 14  1  0  0  0
 13 21  1  0  0  0
 13 22  1  0  0  0
 14 15  1  0  0  0
 14 19  2  0  0  0
 15 16  2  0  0  0
 16 17  1  0  0  0
 17  1  1  0  0  0
 17 18  2  0  0  0
  1  2  2  0  0  0
  1 10  1  0  0  0
  2  3  1  0  0  0
  3 24  1  0  0  0
  3  4  1  0  0  0
 24 25  1  0  0  0
 24 28  1  0  0  0
 25 26  1  0  0  0
 26 27  1  0  0  0
 27 28  1  0  0  0
  4  5  1  0  0  0
  4 10  2  0  0  0
  5  6  2  0  0  0
  6  7  1  0  0  0
  7  8  2  0  0  0
  8  9  1  0  0  0
  8 10  1  0  0  0
  9 11  1  0  0  0
  9 12  1  0  0  0
 18 19  1  0  0  0
 19 20  1  0  0  0
 20 23  1  0  0  0
M  END
> <minimizedAffinity>
-8.79405

$$$$
