CHEMBL2016927


 32 36  0  0  0  0  0  0  0  0999 V2000
  -29.7093   -2.5089   -3.7965 O   0  0  0  0  0  0  0  0  0  0  0  0
  -28.9810   -3.1142   -4.5866 C   0  0  0  0  0  0  0  0  0  0  0  0
  -28.5787   -2.5500   -5.8104 N   0  0  0  0  0  0  0  0  0  0  0  0
  -29.1551   -1.2136   -6.0923 C   0  0  0  0  0  0  0  0  0  0  0  0
  -28.4882   -0.3833   -7.2064 C   0  0  0  0  0  0  0  0  0  0  0  0
  -27.8754   -1.2600   -8.2163 C   0  0  0  0  0  0  0  0  0  0  0  0
  -27.3112   -0.8357   -9.3887 N   0  0  0  0  0  0  0  0  0  0  0  0
  -26.9167   -1.9353  -10.0186 C   0  0  0  0  0  0  0  0  0  0  0  0
  -27.1935   -3.0514   -9.2475 N   0  0  0  0  0  0  0  0  0  0  0  0
  -27.7735   -2.6161   -8.0853 C   0  0  0  0  0  0  0  0  0  0  0  0
  -28.2273   -3.4347   -6.9449 C   0  0  0  0  0  0  0  0  0  0  0  0
  -27.0195   -4.0049   -9.5380 H   0  0  0  0  0  0  0  0  0  0  0  0
  -26.3726   -2.0723  -11.3300 C   0  0  0  0  0  0  0  0  0  0  0  0
  -25.0308   -1.9989  -11.4658 C   0  0  0  0  0  0  0  0  0  0  0  0
  -24.4396   -1.6797  -12.7759 C   0  0  0  0  0  0  0  0  0  0  0  0
  -23.0777   -1.3990  -12.8719 C   0  0  0  0  0  0  0  0  0  0  0  0
  -22.7089   -0.3610  -13.7087 C   0  0  0  0  0  0  0  0  0  0  0  0
  -21.3143    0.5701  -13.3212 Cl  0  0  0  0  0  0  0  0  0  0  0  0
  -23.5504    0.0357  -14.7496 C   0  0  0  0  0  0  0  0  0  0  0  0
  -24.8105   -0.5559  -14.8777 C   0  0  0  0  0  0  0  0  0  0  0  0
  -25.2933   -1.3211  -13.8215 C   0  0  0  0  0  0  0  0  0  0  0  0
  -26.6472   -1.6744  -13.7331 N   0  0  0  0  0  0  0  0  0  0  0  0
  -27.2278   -2.0896  -12.5594 C   0  0  0  0  0  0  0  0  0  0  0  0
  -28.4269   -2.4074  -12.5085 O   0  0  0  0  0  0  0  0  0  0  0  0
  -27.2553   -1.5545  -14.5323 H   0  0  0  0  0  0  0  0  0  0  0  0
  -28.4721   -4.5009   -4.2225 C   0  0  0  0  0  0  0  0  0  0  0  0
  -29.1664   -5.6332   -4.9394 C   0  0  0  0  0  0  0  0  0  0  0  0
  -28.4412   -6.7260   -5.4251 C   0  0  0  0  0  0  0  0  0  0  0  0
  -29.1261   -7.7624   -6.0429 C   0  0  0  0  0  0  0  0  0  0  0  0
  -30.4654   -7.7888   -6.1986 N   0  0  0  0  0  0  0  0  0  0  0  0
  -31.1525   -6.7324   -5.7109 C   0  0  0  0  0  0  0  0  0  0  0  0
  -30.5576   -5.6467   -5.0862 C   0  0  0  0  0  0  0  0  0  0  0  0
  1  2  2  0  0  0
  2 26  1  0  0  0
  2  3  1  0  0  0
 26 27  1  0  0  0
 27 28  1  0  0  0
 27 32  2  0  0  0
 28 29  2  0  0  0
 29 30  1  0  0  0
 30 31  2  0  0  0
 31 32  1  0  0  0
  3  4  1  0  0  0
  3 11  1  0  0  0
  4  5  1  0  0  0
  5  6  1  0  0  0
  6  7  1  0  0  0
  6 10  2  0  0  0
  7  8  2  0  0  0
  8 13  1  0  0  0
  8  9  1  0  0  0
 13 14  2  0  0  0
 13 23  1  0  0  0
 14 15  1  0  0  0
 15 16  1  0  0  0
 15 21  2  0  0  0
 16 17  2  0  0  0
 17 18  1  0  0  0
 17 19  1  0  0  0
 19 20  2  0  0  0
 20 21  1  0  0  0
 21 22  1  0  0  0
 22 23  1  0  0  0
 22 25  1  0  0  0
 23 24  2  0  0  0
  9 10  1  0  0  0
  9 12  1  0  0  0
 10 11  1  0  0  0
M  END
> <minimizedAffinity>
-9.24330

$$$$
