CHEMBL2018749


 31 33  0  0  0  0  0  0  0  0999 V2000
  -27.8683   -2.5209   -9.6555 N   0  0  0  0  0  0  0  0  0  0  0  0
  -28.6892   -2.8969  -10.1137 H   0  0  0  0  0  0  0  0  0  0  0  0
  -28.1164   -2.2277   -8.2875 C   0  0  0  0  0  0  0  0  0  0  0  0
  -27.6104   -1.1067   -7.7469 N   0  0  0  0  0  0  0  0  0  0  0  0
  -27.7764   -0.9074   -6.4459 C   0  0  0  0  0  0  0  0  0  0  0  0
  -28.4200   -1.7234   -5.6022 N   0  0  0  0  0  0  0  0  0  0  0  0
  -28.9051   -2.8485   -6.1254 C   0  0  0  0  0  0  0  0  0  0  0  0
  -29.5042   -3.7238   -5.2399 C   0  0  0  0  0  0  0  0  0  0  0  0
  -29.9885   -4.9794   -5.6370 C   0  0  0  0  0  0  0  0  0  0  0  0
  -29.9181   -5.3373   -6.9842 C   0  0  0  0  0  0  0  0  0  0  0  0
  -29.3291   -4.4304   -7.8966 C   0  0  0  0  0  0  0  0  0  0  0  0
  -28.7887   -3.1848   -7.4799 C   0  0  0  0  0  0  0  0  0  0  0  0
  -30.5289   -5.8630   -4.7344 O   0  0  0  0  0  0  0  0  0  0  0  0
  -29.6447   -6.7715   -4.0866 C   0  0  0  0  0  0  0  0  0  0  0  0
  -30.3348   -6.4867   -7.5955 O   0  0  0  0  0  0  0  0  0  0  0  0
  -29.3597   -7.4559   -7.9460 C   0  0  0  0  0  0  0  0  0  0  0  0
  -25.1419   -1.1115  -12.6153 C   0  0  0  0  0  0  0  0  0  0  0  0
  -24.8024   -1.0645  -11.2661 C   0  0  0  0  0  0  0  0  0  0  0  0
  -25.6972   -1.4945  -10.2769 C   0  0  0  0  0  0  0  0  0  0  0  0
  -26.9790   -1.9395  -10.5875 C   0  0  0  0  0  0  0  0  0  0  0  0
  -27.3362   -1.9302  -11.9522 C   0  0  0  0  0  0  0  0  0  0  0  0
  -26.4391   -1.5037  -12.9522 C   0  0  0  0  0  0  0  0  0  0  0  0
  -22.9552   -0.2943  -13.4661 C   0  0  0  0  0  0  0  0  0  0  0  0
  -22.3386   -0.1722  -12.4181 O   0  0  0  0  0  0  0  0  0  0  0  0
  -24.2288   -0.7844  -13.6394 N   0  0  0  0  0  0  0  0  0  0  0  0
  -24.5145   -0.9024  -14.6008 H   0  0  0  0  0  0  0  0  0  0  0  0
  -22.4652    0.1319  -14.6631 O   0  0  0  0  0  0  0  0  0  0  0  0
  -21.3920    1.0719  -14.5086 C   0  0  0  0  0  0  0  0  0  0  0  0
  -20.0826    0.6723  -15.1878 C   0  0  0  0  0  0  0  0  0  0  0  0
  -19.2135    3.0619  -15.4131 C   0  0  0  0  0  0  0  0  0  0  0  0
  -18.9952    1.6873  -14.8067 C   0  0  0  0  0  0  0  0  0  0  0  0
 30 31  1  0  0  0
 31 29  1  0  0  0
 29 28  1  0  0  0
 28 27  1  0  0  0
 27 23  1  0  0  0
 23 24  2  0  0  0
 23 25  1  0  0  0
 25 17  1  0  0  0
 25 26  1  0  0  0
 17 18  1  0  0  0
 17 22  2  0  0  0
 18 19  2  0  0  0
 19 20  1  0  0  0
 20  1  1  0  0  0
 20 21  2  0  0  0
  1  3  1  0  0  0
  1  2  1  0  0  0
  3  4  1  0  0  0
  3 12  2  0  0  0
  4  5  2  0  0  0
  5  6  1  0  0  0
  6  7  2  0  0  0
  7  8  1  0  0  0
  7 12  1  0  0  0
  8  9  2  0  0  0
  9 13  1  0  0  0
  9 10  1  0  0  0
 13 14  1  0  0  0
 10 15  1  0  0  0
 10 11  2  0  0  0
 15 16  1  0  0  0
 11 12  1  0  0  0
 21 22  1  0  0  0
M  END
> <minimizedAffinity>
-8.80894

$$$$
