CHEMBL2086757


 40 45  0  0  0  0  0  0  0  0999 V2000
  -27.5399  -10.4382   -4.9010 C   0  0  0  0  0  0  0  0  0  0  0  0
  -26.4549  -10.4369   -4.0058 C   0  0  0  0  0  0  0  0  0  0  0  0
  -25.9220   -9.2460   -3.5166 C   0  0  0  0  0  0  0  0  0  0  0  0
  -26.5196   -8.0705   -3.9203 C   0  0  0  0  0  0  0  0  0  0  0  0
  -27.6312   -8.0224   -4.7677 C   0  0  0  0  0  0  0  0  0  0  0  0
  -28.1564   -9.2164   -5.2402 C   0  0  0  0  0  0  0  0  0  0  0  0
  -27.9412   -6.5840   -4.9586 C   0  0  0  0  0  0  0  0  0  0  0  0
  -28.9520   -5.9746   -5.6226 C   0  0  0  0  0  0  0  0  0  0  0  0
  -26.8556   -5.8265   -4.2057 C   0  0  0  0  0  0  0  0  0  0  0  0
  -26.6185   -4.6347   -4.1882 O   0  0  0  0  0  0  0  0  0  0  0  0
  -26.0932   -6.7960   -3.5850 N   0  0  0  0  0  0  0  0  0  0  0  0
  -25.2867   -6.5693   -3.0239 H   0  0  0  0  0  0  0  0  0  0  0  0
  -29.0792   -4.5537   -5.5696 C   0  0  0  0  0  0  0  0  0  0  0  0
  -29.8429   -3.7936   -4.8089 N   0  0  0  0  0  0  0  0  0  0  0  0
  -29.5718   -2.5002   -5.1885 C   0  0  0  0  0  0  0  0  0  0  0  0
  -30.0663   -1.2911   -4.6776 C   0  0  0  0  0  0  0  0  0  0  0  0
  -29.6331   -0.0894   -5.2536 C   0  0  0  0  0  0  0  0  0  0  0  0
  -28.7336   -0.0915   -6.3230 C   0  0  0  0  0  0  0  0  0  0  0  0
  -28.2287   -1.2878   -6.8463 C   0  0  0  0  0  0  0  0  0  0  0  0
  -28.6676   -2.4691   -6.2439 C   0  0  0  0  0  0  0  0  0  0  0  0
  -28.3698   -3.7889   -6.4668 N   0  0  0  0  0  0  0  0  0  0  0  0
  -27.7188   -4.1363   -7.1533 H   0  0  0  0  0  0  0  0  0  0  0  0
  -29.9978   -6.7509   -6.3235 C   0  0  0  0  0  0  0  0  0  0  0  0
  -29.6907   -7.4385   -7.5055 C   0  0  0  0  0  0  0  0  0  0  0  0
  -30.6707   -8.1997   -8.1370 C   0  0  0  0  0  0  0  0  0  0  0  0
  -30.3728   -8.8462   -9.2715 F   0  0  0  0  0  0  0  0  0  0  0  0
  -31.9509   -8.3030   -7.6111 C   0  0  0  0  0  0  0  0  0  0  0  0
  -32.2449   -7.6313   -6.4331 C   0  0  0  0  0  0  0  0  0  0  0  0
  -33.4724   -7.7310   -5.9065 F   0  0  0  0  0  0  0  0  0  0  0  0
  -31.2864   -6.8570   -5.7835 C   0  0  0  0  0  0  0  0  0  0  0  0
  -28.1085  -11.6136   -5.4102 N   0  0  0  0  0  0  0  0  0  0  0  0
  -28.4130  -12.1971   -4.6300 H   0  0  0  0  0  0  0  0  0  0  0  0
  -26.9787  -10.5235   -8.6704 N   0  0  0  0  0  0  0  0  0  0  0  0
  -26.1773  -10.4300   -7.4355 C   0  0  0  0  0  0  0  0  0  0  0  0
  -26.0185  -11.7933   -6.7665 C   0  0  0  0  0  0  0  0  0  0  0  0
  -27.3805  -12.4055   -6.4234 C   0  0  0  0  0  0  0  0  0  0  0  0
  -28.2134  -12.4650   -7.7053 C   0  0  0  0  0  0  0  0  0  0  0  0
  -28.3040  -11.0996   -8.3876 C   0  0  0  0  0  0  0  0  0  0  0  0
  -26.9533   -9.1836  -10.7924 C   0  0  0  0  0  0  0  0  0  0  0  0
  -27.0885   -9.1816   -9.2737 C   0  0  0  0  0  0  0  0  0  0  0  0
 39 40  1  0  0  0
 40 33  1  0  0  0
 33 34  1  0  0  0
 33 38  1  0  0  0
 34 35  1  0  0  0
 35 36  1  0  0  0
 36 31  1  0  0  0
 36 37  1  0  0  0
 31  1  1  0  0  0
 31 32  1  0  0  0
  1  2  1  0  0  0
  1  6  2  0  0  0
  2  3  2  0  0  0
  3  4  1  0  0  0
  4  5  2  0  0  0
  4 11  1  0  0  0
  5  6  1  0  0  0
  5  7  1  0  0  0
  7  8  2  0  0  0
  7  9  1  0  0  0
  8 23  1  0  0  0
  8 13  1  0  0  0
 23 24  1  0  0  0
 23 30  2  0  0  0
 24 25  2  0  0  0
 25 26  1  0  0  0
 25 27  1  0  0  0
 27 28  2  0  0  0
 28 29  1  0  0  0
 28 30  1  0  0  0
 13 14  2  0  0  0
 13 21  1  0  0  0
 14 15  1  0  0  0
 15 16  1  0  0  0
 15 20  2  0  0  0
 16 17  2  0  0  0
 17 18  1  0  0  0
 18 19  2  0  0  0
 19 20  1  0  0  0
 20 21  1  0  0  0
 21 22  1  0  0  0
  9 10  2  0  0  0
  9 11  1  0  0  0
 11 12  1  0  0  0
 37 38  1  0  0  0
M  END
> <minimizedAffinity>
-6.53241

$$$$
