CHEMBL357815


 30 33  0  0  0  0  0  0  0  0999 V2000
  -29.1425   -5.3810   -7.2645 C   0  0  0  0  0  0  0  0  0  0  0  0
  -28.6133   -4.4689   -8.1882 C   0  0  0  0  0  0  0  0  0  0  0  0
  -28.3053   -3.1372   -7.8139 C   0  0  0  0  0  0  0  0  0  0  0  0
  -27.9844   -2.0912   -8.6927 C   0  0  0  0  0  0  0  0  0  0  0  0
  -27.7001   -0.8449   -8.2460 N   0  0  0  0  0  0  0  0  0  0  0  0
  -27.7649   -0.6392   -6.9328 C   0  0  0  0  0  0  0  0  0  0  0  0
  -28.0990   -1.5476   -6.0184 N   0  0  0  0  0  0  0  0  0  0  0  0
  -28.3845   -2.7692   -6.4705 C   0  0  0  0  0  0  0  0  0  0  0  0
  -28.8326   -3.6985   -5.5537 C   0  0  0  0  0  0  0  0  0  0  0  0
  -29.2786   -4.9764   -5.9248 C   0  0  0  0  0  0  0  0  0  0  0  0
  -28.6506   -7.4757   -8.3018 C   0  0  0  0  0  0  0  0  0  0  0  0
  -29.5686   -6.6380   -7.5997 O   0  0  0  0  0  0  0  0  0  0  0  0
  -28.0431   -2.2962  -10.0945 N   0  0  0  0  0  0  0  0  0  0  0  0
  -28.3427   -3.2446  -10.3059 H   0  0  0  0  0  0  0  0  0  0  0  0
  -27.0304   -1.8531  -10.9798 C   0  0  0  0  0  0  0  0  0  0  0  0
  -25.7475   -1.5322  -10.5089 C   0  0  0  0  0  0  0  0  0  0  0  0
  -24.7132   -1.2369  -11.3985 C   0  0  0  0  0  0  0  0  0  0  0  0
  -24.9654   -1.2336  -12.7683 C   0  0  0  0  0  0  0  0  0  0  0  0
  -23.6727   -0.9568  -13.8687 Cl  0  0  0  0  0  0  0  0  0  0  0  0
  -26.2490   -1.4743  -13.2527 C   0  0  0  0  0  0  0  0  0  0  0  0
  -27.2694   -1.7718  -12.3553 C   0  0  0  0  0  0  0  0  0  0  0  0
  -28.4997   -2.0314  -12.8261 F   0  0  0  0  0  0  0  0  0  0  0  0
  -29.8772   -5.8403   -5.0172 O   0  0  0  0  0  0  0  0  0  0  0  0
  -28.9641   -6.3679   -4.0353 C   0  0  0  0  0  0  0  0  0  0  0  0
  -28.0201   -7.4268   -4.5923 C   0  0  0  0  0  0  0  0  0  0  0  0
  -28.5984   -8.7499   -4.4445 N   0  0  0  0  0  0  0  0  0  0  0  0
  -28.8879   -9.6737   -5.4027 C   0  0  0  0  0  0  0  0  0  0  0  0
  -29.2992  -10.7752   -4.6913 C   0  0  0  0  0  0  0  0  0  0  0  0
  -29.2495  -10.4957   -3.3562 N   0  0  0  0  0  0  0  0  0  0  0  0
  -28.8277   -9.2479   -3.2161 N   0  0  0  0  0  0  0  0  0  0  0  0
 11 12  1  0  0  0
 12  1  1  0  0  0
  1  2  1  0  0  0
  1 10  2  0  0  0
  2  3  2  0  0  0
  3  4  1  0  0  0
  3  8  1  0  0  0
  4 13  1  0  0  0
  4  5  2  0  0  0
 13 15  1  0  0  0
 13 14  1  0  0  0
 15 16  1  0  0  0
 15 21  2  0  0  0
 16 17  2  0  0  0
 17 18  1  0  0  0
 18 19  1  0  0  0
 18 20  2  0  0  0
 20 21  1  0  0  0
 21 22  1  0  0  0
  5  6  1  0  0  0
  6  7  2  0  0  0
  7  8  1  0  0  0
  8  9  2  0  0  0
  9 10  1  0  0  0
 10 23  1  0  0  0
 23 24  1  0  0  0
 24 25  1  0  0  0
 25 26  1  0  0  0
 26 27  1  0  0  0
 26 30  1  0  0  0
 27 28  2  0  0  0
 28 29  1  0  0  0
 29 30  2  0  0  0
M  END
> <minimizedAffinity>
-8.51692

$$$$
