CHEMBL4292884


 46 50  0  0  0  0  0  0  0  0999 V2000
  -14.7123   -0.1187  -14.2722 C   0  0  0  0  0  0  0  0  0  0  0  0
  -15.1213    0.5488  -15.4269 C   0  0  0  0  0  0  0  0  0  0  0  0
  -16.3170    1.2510  -15.4329 C   0  0  0  0  0  0  0  0  0  0  0  0
  -17.1532    1.2327  -14.3166 C   0  0  0  0  0  0  0  0  0  0  0  0
  -16.7455    0.5633  -13.1574 C   0  0  0  0  0  0  0  0  0  0  0  0
  -15.5336   -0.1262  -13.1490 C   0  0  0  0  0  0  0  0  0  0  0  0
  -15.1838   -0.8203  -12.0561 F   0  0  0  0  0  0  0  0  0  0  0  0
  -18.4141    1.8477  -14.3321 N   0  0  0  0  0  0  0  0  0  0  0  0
  -19.5599    1.2971  -14.8743 C   0  0  0  0  0  0  0  0  0  0  0  0
  -19.6864    0.2074  -15.4142 O   0  0  0  0  0  0  0  0  0  0  0  0
  -18.5099    2.7274  -13.8384 H   0  0  0  0  0  0  0  0  0  0  0  0
  -20.7662    2.1656  -14.7575 C   0  0  0  0  0  0  0  0  0  0  0  0
  -21.2011    3.0065  -15.9597 C   0  0  0  0  0  0  0  0  0  0  0  0
  -20.5441    3.6689  -14.7895 C   0  0  0  0  0  0  0  0  0  0  0  0
  -21.8514    1.5196  -13.9762 C   0  0  0  0  0  0  0  0  0  0  0  0
  -22.7057    2.2588  -13.4908 O   0  0  0  0  0  0  0  0  0  0  0  0
  -21.8371    0.1415  -13.8942 N   0  0  0  0  0  0  0  0  0  0  0  0
  -20.9487   -0.3365  -13.9745 H   0  0  0  0  0  0  0  0  0  0  0  0
  -22.9601   -0.5707  -13.4262 C   0  0  0  0  0  0  0  0  0  0  0  0
  -24.0439   -0.8306  -14.2790 C   0  0  0  0  0  0  0  0  0  0  0  0
  -25.2093   -1.4130  -13.7872 C   0  0  0  0  0  0  0  0  0  0  0  0
  -25.2860   -1.7315  -12.4401 C   0  0  0  0  0  0  0  0  0  0  0  0
  -26.4297   -2.2196  -11.9435 F   0  0  0  0  0  0  0  0  0  0  0  0
  -24.1942   -1.5410  -11.5959 C   0  0  0  0  0  0  0  0  0  0  0  0
  -23.0097   -0.9900  -12.0972 C   0  0  0  0  0  0  0  0  0  0  0  0
  -13.5109   -0.8463  -14.2458 O   0  0  0  0  0  0  0  0  0  0  0  0
  -14.1121   -3.5285  -13.0494 C   0  0  0  0  0  0  0  0  0  0  0  0
  -13.9043   -3.8026  -14.4997 C   0  0  0  0  0  0  0  0  0  0  0  0
  -14.0158   -5.0543  -15.2165 C   0  0  0  0  0  0  0  0  0  0  0  0
  -13.6635   -4.7820  -16.5302 C   0  0  0  0  0  0  0  0  0  0  0  0
  -13.3354   -3.4714  -16.6444 N   0  0  0  0  0  0  0  0  0  0  0  0
  -12.9258   -2.8637  -17.7698 N   0  0  0  0  0  0  0  0  0  0  0  0
  -12.6429   -1.6070  -17.6316 C   0  0  0  0  0  0  0  0  0  0  0  0
  -12.7506   -0.8705  -16.4858 N   0  0  0  0  0  0  0  0  0  0  0  0
  -13.1997   -1.4736  -15.4346 C   0  0  0  0  0  0  0  0  0  0  0  0
  -13.4872   -2.8670  -15.4384 C   0  0  0  0  0  0  0  0  0  0  0  0
  -14.3584   -6.4138  -14.8043 C   0  0  0  0  0  0  0  0  0  0  0  0
  -15.5242   -6.7965  -14.7607 O   0  0  0  0  0  0  0  0  0  0  0  0
  -13.3060   -7.2094  -14.4296 N   0  0  0  0  0  0  0  0  0  0  0  0
  -12.3678   -6.8381  -14.4156 H   0  0  0  0  0  0  0  0  0  0  0  0
  -13.5056   -8.5864  -14.0274 C   0  0  0  0  0  0  0  0  0  0  0  0
  -13.6468   -8.7341  -12.5133 C   0  0  0  0  0  0  0  0  0  0  0  0
  -12.5266   -8.0440  -11.7231 C   0  0  0  0  0  0  0  0  0  0  0  0
  -12.7321   -6.6009  -11.5036 N   0  0  0  0  0  0  0  0  0  0  0  0
  -14.0260   -6.3260  -10.8733 C   0  0  0  0  0  0  0  0  0  0  0  0
  -11.6532   -6.0664  -10.6675 C   0  0  0  0  0  0  0  0  0  0  0  0
 27 28  1  0  0  0
 28 29  1  0  0  0
 28 36  2  0  0  0
 29 37  1  0  0  0
 29 30  2  0  0  0
 37 38  2  0  0  0
 37 39  1  0  0  0
 39 41  1  0  0  0
 39 40  1  0  0  0
 41 42  1  0  0  0
 42 43  1  0  0  0
 43 44  1  0  0  0
 44 45  1  0  0  0
 44 46  1  0  0  0
 30 31  1  0  0  0
 31 32  1  0  0  0
 31 36  1  0  0  0
 32 33  2  0  0  0
 33 34  1  0  0  0
 34 35  2  0  0  0
 35 26  1  0  0  0
 35 36  1  0  0  0
 26  1  1  0  0  0
  1  2  1  0  0  0
  1  6  2  0  0  0
  2  3  2  0  0  0
  3  4  1  0  0  0
  4  8  1  0  0  0
  4  5  2  0  0  0
  8  9  1  0  0  0
  8 11  1  0  0  0
  9 10  2  0  0  0
  9 12  1  0  0  0
 12 15  1  0  0  0
 12 13  1  0  0  0
 12 14  1  0  0  0
 15 16  2  0  0  0
 15 17  1  0  0  0
 17 19  1  0  0  0
 17 18  1  0  0  0
 19 20  1  0  0  0
 19 25  2  0  0  0
 20 21  2  0  0  0
 21 22  1  0  0  0
 22 23  1  0  0  0
 22 24  2  0  0  0
 24 25  1  0  0  0
 13 14  1  0  0  0
  5  6  1  0  0  0
  6  7  1  0  0  0
M  END
> <minimizedAffinity>
-9.14278

$$$$
