CHEMBL3648123


 30 31  0  0  0  0  0  0  0  0999 V2000
  -18.8141    2.5041  -14.9526 C   0  0  0  0  0  0  0  0  0  0  0  0
  -18.2240    3.3695  -15.7797 N   0  0  0  0  0  0  0  0  0  0  0  0
  -17.0242    3.0021  -16.2579 C   0  0  0  0  0  0  0  0  0  0  0  0
  -16.3907    1.8106  -15.9600 C   0  0  0  0  0  0  0  0  0  0  0  0
  -14.7658    1.4755  -16.8558 Br  0  0  0  0  0  0  0  0  0  0  0  0
  -17.0098    1.0183  -15.0082 C   0  0  0  0  0  0  0  0  0  0  0  0
  -18.2155    1.3806  -14.5098 N   0  0  0  0  0  0  0  0  0  0  0  0
  -20.1502    2.7704  -14.6815 N   0  0  0  0  0  0  0  0  0  0  0  0
  -20.2355    3.6922  -14.2731 H   0  0  0  0  0  0  0  0  0  0  0  0
  -23.3181    0.1875  -13.7223 C   0  0  0  0  0  0  0  0  0  0  0  0
  -22.1661   -0.3341  -14.3185 C   0  0  0  0  0  0  0  0  0  0  0  0
  -21.1147    0.5210  -14.6566 C   0  0  0  0  0  0  0  0  0  0  0  0
  -21.2010    1.8951  -14.4026 C   0  0  0  0  0  0  0  0  0  0  0  0
  -22.3530    2.3924  -13.7741 C   0  0  0  0  0  0  0  0  0  0  0  0
  -23.4215    1.5521  -13.4542 C   0  0  0  0  0  0  0  0  0  0  0  0
  -24.6746   -0.8976  -13.3150 S   0  0  0  0  0  0  0  0  0  0  0  0
  -25.2244   -1.4352  -14.6513 N   0  0  0  0  0  0  0  0  0  0  0  0
  -25.4923   -0.1991  -12.3407 O   0  0  0  0  0  0  0  0  0  0  0  0
  -26.1363   -1.8740  -14.5148 H   0  0  0  0  0  0  0  0  0  0  0  0
  -23.0224   -1.7285  -11.2958 C   0  0  0  0  0  0  0  0  0  0  0  0
  -23.8430   -2.2306  -12.4675 C   0  0  0  0  0  0  0  0  0  0  0  0
  -16.5624   -0.1333  -14.4290 N   0  0  0  0  0  0  0  0  0  0  0  0
  -16.7568   -0.9158  -15.0524 H   0  0  0  0  0  0  0  0  0  0  0  0
  -15.7670   -0.4648  -13.2402 C   0  0  0  0  0  0  0  0  0  0  0  0
  -14.5175    0.4218  -13.1965 C   0  0  0  0  0  0  0  0  0  0  0  0
  -15.4326   -1.9992  -13.2648 C   0  0  0  0  0  0  0  0  0  0  0  0
  -13.9842   -2.2861  -13.6837 C   0  0  0  0  0  0  0  0  0  0  0  0
  -15.7052   -2.6819  -11.9212 C   0  0  0  0  0  0  0  0  0  0  0  0
  -16.3018   -2.6593  -14.2039 O   0  0  0  0  0  0  0  0  0  0  0  0
  -16.7968   -1.9542  -14.6595 H   0  0  0  0  0  0  0  0  0  0  0  0
 20 21  1  0  0  0
 21 16  1  0  0  0
 16 17  2  0  0  0
 16 18  2  0  0  0
 16 10  1  0  0  0
 17 19  1  0  0  0
 10 11  1  0  0  0
 10 15  2  0  0  0
 11 12  2  0  0  0
 12 13  1  0  0  0
 13  8  1  0  0  0
 13 14  2  0  0  0
  8  1  1  0  0  0
  8  9  1  0  0  0
  1  2  1  0  0  0
  1  7  2  0  0  0
  2  3  2  0  0  0
  3  4  1  0  0  0
  4  5  1  0  0  0
  4  6  2  0  0  0
  6 22  1  0  0  0
  6  7  1  0  0  0
 22 23  1  0  0  0
 24 26  1  0  0  0
 24 25  1  0  0  0
 24 22  1  0  0  0
 26 27  1  0  0  0
 26 28  1  0  0  0
 26 29  1  0  0  0
 29 30  1  0  0  0
 14 15  1  0  0  0
M  END
> <minimizedAffinity>
-7.94533

$$$$
