CHEMBL191160


 32 35  0  0  0  0  0  0  0  0999 V2000
  -29.1604   -3.2328   -5.7070 C   0  0  0  0  0  0  0  0  0  0  0  0
  -28.6119   -2.0912   -5.1221 C   0  0  0  0  0  0  0  0  0  0  0  0
  -27.8863   -1.1566   -5.7817 N   0  0  0  0  0  0  0  0  0  0  0  0
  -27.7327   -1.3458   -7.1115 C   0  0  0  0  0  0  0  0  0  0  0  0
  -28.2587   -2.4174   -7.8326 C   0  0  0  0  0  0  0  0  0  0  0  0
  -28.9629   -3.3715   -7.0910 C   0  0  0  0  0  0  0  0  0  0  0  0
  -30.2240   -6.4516   -4.3693 C   0  0  0  0  0  0  0  0  0  0  0  0
  -31.2590   -6.0688   -3.5140 C   0  0  0  0  0  0  0  0  0  0  0  0
  -31.6261   -4.7816   -3.3057 N   0  0  0  0  0  0  0  0  0  0  0  0
  -30.9318   -3.8698   -4.0269 C   0  0  0  0  0  0  0  0  0  0  0  0
  -29.9138   -4.2111   -4.9137 C   0  0  0  0  0  0  0  0  0  0  0  0
  -29.5667   -5.5116   -5.0879 N   0  0  0  0  0  0  0  0  0  0  0  0
  -29.9330   -7.8255   -4.5621 N   0  0  0  0  0  0  0  0  0  0  0  0
  -29.1332   -8.0867   -3.9910 H   0  0  0  0  0  0  0  0  0  0  0  0
  -26.7143  -10.0263   -7.8859 Cl  0  0  0  0  0  0  0  0  0  0  0  0
  -28.2668   -9.4093   -7.4719 C   0  0  0  0  0  0  0  0  0  0  0  0
  -29.2868   -9.4198   -8.4218 C   0  0  0  0  0  0  0  0  0  0  0  0
  -30.5404   -8.9107   -8.0921 C   0  0  0  0  0  0  0  0  0  0  0  0
  -30.7707   -8.4088   -6.8095 C   0  0  0  0  0  0  0  0  0  0  0  0
  -29.7582   -8.4262   -5.8376 C   0  0  0  0  0  0  0  0  0  0  0  0
  -28.4916   -8.8995   -6.1924 C   0  0  0  0  0  0  0  0  0  0  0  0
  -28.1082   -2.4624   -9.2173 N   0  0  0  0  0  0  0  0  0  0  0  0
  -28.9977   -2.4565   -9.7119 H   0  0  0  0  0  0  0  0  0  0  0  0
  -27.0455   -1.6949   -9.8569 C   0  0  0  0  0  0  0  0  0  0  0  0
  -27.4482   -1.3788  -11.2967 C   0  0  0  0  0  0  0  0  0  0  0  0
  -26.4896   -2.0135  -12.3141 C   0  0  0  0  0  0  0  0  0  0  0  0
  -25.3076   -1.1892  -12.6244 N   0  0  0  0  0  0  0  0  0  0  0  0
  -24.1536   -1.5220  -11.7713 C   0  0  0  0  0  0  0  0  0  0  0  0
  -22.9649   -0.6049  -12.0625 C   0  0  0  0  0  0  0  0  0  0  0  0
  -22.5733   -0.6558  -13.5324 C   0  0  0  0  0  0  0  0  0  0  0  0
  -23.7883   -0.3871  -14.4117 C   0  0  0  0  0  0  0  0  0  0  0  0
  -24.9552   -1.3074  -14.0485 C   0  0  0  0  0  0  0  0  0  0  0  0
 15 16  1  0  0  0
 16 17  1  0  0  0
 16 21  2  0  0  0
 17 18  2  0  0  0
 18 19  1  0  0  0
 19 20  2  0  0  0
 20 13  1  0  0  0
 20 21  1  0  0  0
 13  7  1  0  0  0
 13 14  1  0  0  0
  7  8  1  0  0  0
  7 12  2  0  0  0
  8  9  2  0  0  0
  9 10  1  0  0  0
 10 11  2  0  0  0
 11  1  1  0  0  0
 11 12  1  0  0  0
  1  2  1  0  0  0
  1  6  2  0  0  0
  2  3  2  0  0  0
  3  4  1  0  0  0
  4  5  2  0  0  0
  5 22  1  0  0  0
  5  6  1  0  0  0
 22 24  1  0  0  0
 22 23  1  0  0  0
 24 25  1  0  0  0
 25 26  1  0  0  0
 26 27  1  0  0  0
 27 28  1  0  0  0
 27 32  1  0  0  0
 28 29  1  0  0  0
 29 30  1  0  0  0
 30 31  1  0  0  0
 31 32  1  0  0  0
M  END
> <minimizedAffinity>
-9.01779

$$$$
