CHEMBL3982896


 38 41  0  0  0  0  0  0  0  0999 V2000
  -24.9272   -0.8744  -15.7174 C   0  0  0  0  0  0  0  0  0  0  0  0
  -24.6983   -1.2369  -14.2773 C   0  0  0  0  0  0  0  0  0  0  0  0
  -25.8174   -1.6505  -13.5334 C   0  0  0  0  0  0  0  0  0  0  0  0
  -25.7447   -1.9717  -12.1746 C   0  0  0  0  0  0  0  0  0  0  0  0
  -24.4899   -1.9777  -11.5705 C   0  0  0  0  0  0  0  0  0  0  0  0
  -23.3566   -1.5858  -12.2990 C   0  0  0  0  0  0  0  0  0  0  0  0
  -23.4624   -1.1401  -13.6278 C   0  0  0  0  0  0  0  0  0  0  0  0
  -26.8900   -2.2727  -11.3963 N   0  0  0  0  0  0  0  0  0  0  0  0
  -27.0251   -1.9720  -10.0521 C   0  0  0  0  0  0  0  0  0  0  0  0
  -26.1809   -1.4023   -9.3667 O   0  0  0  0  0  0  0  0  0  0  0  0
  -28.2202   -2.4265   -9.5122 N   0  0  0  0  0  0  0  0  0  0  0  0
  -27.6220   -2.8164  -11.8303 H   0  0  0  0  0  0  0  0  0  0  0  0
  -28.4922   -3.3485   -9.8299 H   0  0  0  0  0  0  0  0  0  0  0  0
  -28.4484   -2.1886   -8.1290 C   0  0  0  0  0  0  0  0  0  0  0  0
  -28.6127   -0.8875   -7.6341 C   0  0  0  0  0  0  0  0  0  0  0  0
  -28.6714   -0.6458   -6.2523 C   0  0  0  0  0  0  0  0  0  0  0  0
  -28.5654   -1.7349   -5.3721 C   0  0  0  0  0  0  0  0  0  0  0  0
  -28.4411   -3.0378   -5.8645 C   0  0  0  0  0  0  0  0  0  0  0  0
  -28.4060   -3.2581   -7.2376 C   0  0  0  0  0  0  0  0  0  0  0  0
  -28.2384   -4.5058   -7.7020 F   0  0  0  0  0  0  0  0  0  0  0  0
  -28.8150    0.7686   -5.7298 C   0  0  0  0  0  0  0  0  0  0  0  0
  -30.2599    1.1180   -5.4080 C   0  0  0  0  0  0  0  0  0  0  0  0
  -28.0764    0.9781   -4.5996 F   0  0  0  0  0  0  0  0  0  0  0  0
  -28.3585    1.6922   -6.6277 F   0  0  0  0  0  0  0  0  0  0  0  0
  -22.3711   -0.6419  -14.3237 O   0  0  0  0  0  0  0  0  0  0  0  0
  -22.1346    0.7250  -14.2871 C   0  0  0  0  0  0  0  0  0  0  0  0
  -23.0004    1.6191  -13.6627 C   0  0  0  0  0  0  0  0  0  0  0  0
  -22.6333    2.9444  -13.6175 C   0  0  0  0  0  0  0  0  0  0  0  0
  -21.5204    3.4220  -14.1978 N   0  0  0  0  0  0  0  0  0  0  0  0
  -20.7172    2.5836  -14.8648 C   0  0  0  0  0  0  0  0  0  0  0  0
  -20.9919    1.2157  -14.9330 C   0  0  0  0  0  0  0  0  0  0  0  0
  -19.5829    3.1033  -15.5156 N   0  0  0  0  0  0  0  0  0  0  0  0
  -18.2849    2.8594  -15.0975 C   0  0  0  0  0  0  0  0  0  0  0  0
  -17.9241    2.1691  -14.1595 O   0  0  0  0  0  0  0  0  0  0  0  0
  -19.7372    3.6966  -16.3141 H   0  0  0  0  0  0  0  0  0  0  0  0
  -17.2275    3.5437  -15.9140 C   0  0  0  0  0  0  0  0  0  0  0  0
  -16.2860    2.7028  -16.7568 C   0  0  0  0  0  0  0  0  0  0  0  0
  -15.7702    3.3829  -15.5226 C   0  0  0  0  0  0  0  0  0  0  0  0
  1  2  1  0  0  0
  2  3  1  0  0  0
  2  7  2  0  0  0
  3  4  2  0  0  0
  4  8  1  0  0  0
  4  5  1  0  0  0
  8  9  1  0  0  0
  8 12  1  0  0  0
  9 10  2  0  0  0
  9 11  1  0  0  0
 11 14  1  0  0  0
 11 13  1  0  0  0
 14 15  1  0  0  0
 14 19  2  0  0  0
 15 16  2  0  0  0
 16 21  1  0  0  0
 16 17  1  0  0  0
 21 22  1  0  0  0
 21 23  1  0  0  0
 21 24  1  0  0  0
 17 18  2  0  0  0
 18 19  1  0  0  0
 19 20  1  0  0  0
  5  6  2  0  0  0
  6  7  1  0  0  0
  7 25  1  0  0  0
 25 26  1  0  0  0
 26 27  1  0  0  0
 26 31  2  0  0  0
 27 28  2  0  0  0
 28 29  1  0  0  0
 29 30  2  0  0  0
 30 32  1  0  0  0
 30 31  1  0  0  0
 32 33  1  0  0  0
 32 35  1  0  0  0
 33 34  2  0  0  0
 33 36  1  0  0  0
 36 37  1  0  0  0
 36 38  1  0  0  0
 37 38  1  0  0  0
M  END
> <minimizedAffinity>
-11.45824

$$$$
