CHEMBL365318


 34 37  0  0  0  0  0  0  0  0999 V2000
  -29.2946   -8.0128   -6.2049 C   0  0  0  0  0  0  0  0  0  0  0  0
  -30.0295   -7.7648   -7.2562 N   0  0  0  0  0  0  0  0  0  0  0  0
  -29.7549   -8.3677   -8.4482 C   0  0  0  0  0  0  0  0  0  0  0  0
  -28.7887   -9.1875   -8.6903 N   0  0  0  0  0  0  0  0  0  0  0  0
  -28.0100   -9.4378   -7.6299 N   0  0  0  0  0  0  0  0  0  0  0  0
  -26.9058  -10.2319   -7.6759 C   0  0  0  0  0  0  0  0  0  0  0  0
  -26.3460  -10.2597   -6.4217 C   0  0  0  0  0  0  0  0  0  0  0  0
  -27.1406   -9.4132   -5.5594 C   0  0  0  0  0  0  0  0  0  0  0  0
  -28.1809   -8.9275   -6.3664 C   0  0  0  0  0  0  0  0  0  0  0  0
  -25.0947  -11.0256   -6.1201 C   0  0  0  0  0  0  0  0  0  0  0  0
  -25.0379  -12.0891   -5.3368 N   0  0  0  0  0  0  0  0  0  0  0  0
  -23.7189  -12.4646   -5.2450 N   0  0  0  0  0  0  0  0  0  0  0  0
  -23.0461  -11.6092   -5.9784 C   0  0  0  0  0  0  0  0  0  0  0  0
  -21.5907  -11.4863   -6.1589 C   0  0  0  0  0  0  0  0  0  0  0  0
  -23.8445  -10.6863   -6.5950 O   0  0  0  0  0  0  0  0  0  0  0  0
  -26.7820   -9.1135   -4.1148 C   0  0  0  0  0  0  0  0  0  0  0  0
  -27.2629  -10.1810   -3.1331 C   0  0  0  0  0  0  0  0  0  0  0  0
  -25.3273   -8.6978   -3.9083 C   0  0  0  0  0  0  0  0  0  0  0  0
  -29.6409   -7.4192   -5.0146 N   0  0  0  0  0  0  0  0  0  0  0  0
  -29.6860   -7.9889   -4.1861 H   0  0  0  0  0  0  0  0  0  0  0  0
  -28.9661   -3.7377   -5.0909 C   0  0  0  0  0  0  0  0  0  0  0  0
  -28.8618   -5.1094   -5.3679 C   0  0  0  0  0  0  0  0  0  0  0  0
  -29.7044   -6.0379   -4.7454 C   0  0  0  0  0  0  0  0  0  0  0  0
  -30.6766   -5.5470   -3.8594 C   0  0  0  0  0  0  0  0  0  0  0  0
  -31.5048   -6.4087   -3.2491 F   0  0  0  0  0  0  0  0  0  0  0  0
  -30.8096   -4.1881   -3.5907 C   0  0  0  0  0  0  0  0  0  0  0  0
  -29.9491   -3.2895   -4.2103 C   0  0  0  0  0  0  0  0  0  0  0  0
  -30.0784   -1.9836   -3.9331 F   0  0  0  0  0  0  0  0  0  0  0  0
  -28.1589   -2.6217   -7.0914 N   0  0  0  0  0  0  0  0  0  0  0  0
  -27.9965   -2.8234   -5.7386 C   0  0  0  0  0  0  0  0  0  0  0  0
  -27.0991   -2.3348   -5.0581 O   0  0  0  0  0  0  0  0  0  0  0  0
  -29.0632   -2.7541   -7.5340 H   0  0  0  0  0  0  0  0  0  0  0  0
  -27.4288   -1.6886   -9.0642 C   0  0  0  0  0  0  0  0  0  0  0  0
  -27.3642   -1.5888   -7.6430 O   0  0  0  0  0  0  0  0  0  0  0  0
 33 34  1  0  0  0
 34 29  1  0  0  0
 29 30  1  0  0  0
 29 32  1  0  0  0
 30 31  2  0  0  0
 30 21  1  0  0  0
 21 22  1  0  0  0
 21 27  2  0  0  0
 22 23  2  0  0  0
 23 19  1  0  0  0
 23 24  1  0  0  0
 19  1  1  0  0  0
 19 20  1  0  0  0
  1  2  2  0  0  0
  1  9  1  0  0  0
  2  3  1  0  0  0
  3  4  2  0  0  0
  4  5  1  0  0  0
  5  6  1  0  0  0
  5  9  1  0  0  0
  6  7  2  0  0  0
  7 10  1  0  0  0
  7  8  1  0  0  0
 10 11  2  0  0  0
 10 15  1  0  0  0
 11 12  1  0  0  0
 12 13  2  0  0  0
 13 14  1  0  0  0
 13 15  1  0  0  0
  8 16  1  0  0  0
  8  9  2  0  0  0
 16 17  1  0  0  0
 16 18  1  0  0  0
 24 25  1  0  0  0
 24 26  2  0  0  0
 26 27  1  0  0  0
 27 28  1  0  0  0
M  END
> <minimizedAffinity>
-8.29355

$$$$
