CHEMBL223147


 28 32  0  0  0  0  0  0  0  0999 V2000
  -30.7678  -10.5591   -7.6277 N   0  0  0  0  0  0  0  0  0  0  0  0
  -29.9599  -11.2768   -8.4965 C   0  0  0  0  0  0  0  0  0  0  0  0
  -30.0696  -12.4659   -8.7713 O   0  0  0  0  0  0  0  0  0  0  0  0
  -28.8891  -10.2996   -9.0515 C   0  0  0  0  0  0  0  0  0  0  0  0
  -27.5160  -10.8653   -8.6812 C   0  0  0  0  0  0  0  0  0  0  0  0
  -29.0691  -10.2111  -10.5664 C   0  0  0  0  0  0  0  0  0  0  0  0
  -29.2335   -8.9987   -8.3341 C   0  0  0  0  0  0  0  0  0  0  0  0
  -28.6623   -7.7173   -8.3969 C   0  0  0  0  0  0  0  0  0  0  0  0
  -29.2362   -6.7230   -7.5606 C   0  0  0  0  0  0  0  0  0  0  0  0
  -28.9548   -5.3769   -7.3586 N   0  0  0  0  0  0  0  0  0  0  0  0
  -29.7489   -4.8631   -6.3508 C   0  0  0  0  0  0  0  0  0  0  0  0
  -30.5294   -5.8807   -5.8573 C   0  0  0  0  0  0  0  0  0  0  0  0
  -30.2910   -7.0097   -6.6880 C   0  0  0  0  0  0  0  0  0  0  0  0
  -30.8773   -8.2813   -6.6898 C   0  0  0  0  0  0  0  0  0  0  0  0
  -30.3314   -9.2406   -7.5118 C   0  0  0  0  0  0  0  0  0  0  0  0
  -31.4509   -5.8772   -4.7006 C   0  0  0  0  0  0  0  0  0  0  0  0
  -31.2834   -4.9399   -3.5039 C   0  0  0  0  0  0  0  0  0  0  0  0
  -30.4949   -3.6320   -3.3968 C   0  0  0  0  0  0  0  0  0  0  0  0
  -29.4701   -3.2632   -4.4277 C   0  0  0  0  0  0  0  0  0  0  0  0
  -28.9305   -1.9527   -4.6023 C   0  0  0  0  0  0  0  0  0  0  0  0
  -27.4765   -1.5917   -4.6254 C   0  0  0  0  0  0  0  0  0  0  0  0
  -29.7326   -1.3414   -5.4964 N   0  0  0  0  0  0  0  0  0  0  0  0
  -30.2034   -2.4099   -6.1913 N   0  0  0  0  0  0  0  0  0  0  0  0
  -29.6070   -3.5872   -5.7690 C   0  0  0  0  0  0  0  0  0  0  0  0
  -28.2011   -4.8731   -7.8156 H   0  0  0  0  0  0  0  0  0  0  0  0
  -30.9562   -2.2745   -6.8556 H   0  0  0  0  0  0  0  0  0  0  0  0
  -31.3736  -11.9080   -5.6636 C   0  0  0  0  0  0  0  0  0  0  0  0
  -31.8617  -11.1235   -6.8711 C   0  0  0  0  0  0  0  0  0  0  0  0
 27 28  1  0  0  0
 28  1  1  0  0  0
  1  2  1  0  0  0
  1 15  1  0  0  0
  2  3  2  0  0  0
  2  4  1  0  0  0
  4  5  1  0  0  0
  4  6  1  0  0  0
  4  7  1  0  0  0
  7  8  1  0  0  0
  7 15  2  0  0  0
  8  9  2  0  0  0
  9 10  1  0  0  0
  9 13  1  0  0  0
 10 11  1  0  0  0
 10 25  1  0  0  0
 11 12  2  0  0  0
 11 24  1  0  0  0
 12 13  1  0  0  0
 12 16  1  0  0  0
 13 14  2  0  0  0
 14 15  1  0  0  0
 16 17  1  0  0  0
 17 18  1  0  0  0
 18 19  1  0  0  0
 19 20  1  0  0  0
 19 24  2  0  0  0
 20 21  1  0  0  0
 20 22  2  0  0  0
 22 23  1  0  0  0
 23 24  1  0  0  0
 23 26  1  0  0  0
M  END
> <minimizedAffinity>
-8.76513

$$$$
