CHEMBL215563


 40 45  0  0  0  0  0  0  0  0999 V2000
  -26.7020   -9.1448   -3.8673 C   0  0  0  0  0  0  0  0  0  0  0  0
  -25.6722   -8.3692   -4.2588 N   0  0  0  0  0  0  0  0  0  0  0  0
  -24.5729   -9.1767   -4.1503 N   0  0  0  0  0  0  0  0  0  0  0  0
  -24.8408  -10.4042   -3.5942 C   0  0  0  0  0  0  0  0  0  0  0  0
  -26.1978  -10.3227   -3.2487 C   0  0  0  0  0  0  0  0  0  0  0  0
  -26.7535  -11.6924   -3.1461 C   0  0  0  0  0  0  0  0  0  0  0  0
  -25.9724  -12.1549   -4.3804 C   0  0  0  0  0  0  0  0  0  0  0  0
  -26.3967  -12.0429   -5.7213 C   0  0  0  0  0  0  0  0  0  0  0  0
  -25.4258  -12.0587   -6.7393 C   0  0  0  0  0  0  0  0  0  0  0  0
  -24.1344  -12.4582   -6.3939 C   0  0  0  0  0  0  0  0  0  0  0  0
  -23.6992  -12.2265   -5.0912 C   0  0  0  0  0  0  0  0  0  0  0  0
  -24.6242  -11.7970   -4.1611 C   0  0  0  0  0  0  0  0  0  0  0  0
  -23.7220   -8.8747   -4.6118 H   0  0  0  0  0  0  0  0  0  0  0  0
  -29.9773   -7.8533   -5.1478 C   0  0  0  0  0  0  0  0  0  0  0  0
  -29.0184   -8.0220   -4.1572 C   0  0  0  0  0  0  0  0  0  0  0  0
  -28.0707   -9.0485   -4.4865 C   0  0  0  0  0  0  0  0  0  0  0  0
  -28.5500   -9.7700   -5.5639 C   0  0  0  0  0  0  0  0  0  0  0  0
  -29.9355   -9.1085   -6.2990 S   0  0  0  0  0  0  0  0  0  0  0  0
  -30.8937   -6.7072   -5.3838 C   0  0  0  0  0  0  0  0  0  0  0  0
  -29.7378   -3.4496   -4.3612 N   0  0  0  0  0  0  0  0  0  0  0  0
  -29.9672   -4.5135   -5.1995 C   0  0  0  0  0  0  0  0  0  0  0  0
  -29.7144   -4.5712   -6.3978 O   0  0  0  0  0  0  0  0  0  0  0  0
  -30.5561   -5.5790   -4.5486 N   0  0  0  0  0  0  0  0  0  0  0  0
  -29.9091   -3.6090   -3.3828 H   0  0  0  0  0  0  0  0  0  0  0  0
  -31.2131   -5.3459   -3.8193 H   0  0  0  0  0  0  0  0  0  0  0  0
  -30.3962    1.2149   -5.7995 C   0  0  0  0  0  0  0  0  0  0  0  0
  -29.4785    0.1024   -5.4258 C   0  0  0  0  0  0  0  0  0  0  0  0
  -28.0866    0.2936   -5.4081 C   0  0  0  0  0  0  0  0  0  0  0  0
  -27.2393   -0.7555   -5.0634 C   0  0  0  0  0  0  0  0  0  0  0  0
  -27.7654   -2.0007   -4.7234 C   0  0  0  0  0  0  0  0  0  0  0  0
  -29.1506   -2.2210   -4.7153 C   0  0  0  0  0  0  0  0  0  0  0  0
  -29.9952   -1.1623   -5.0781 C   0  0  0  0  0  0  0  0  0  0  0  0
  -25.6135  -11.3523   -8.0777 C   0  0  0  0  0  0  0  0  0  0  0  0
  -26.9604  -10.8672   -8.3738 N   0  0  0  0  0  0  0  0  0  0  0  0
  -26.9053   -9.6263   -9.1651 C   0  0  0  0  0  0  0  0  0  0  0  0
  -28.3169   -9.1413   -9.5560 C   0  0  0  0  0  0  0  0  0  0  0  0
  -29.1234  -10.1203  -10.3105 N   0  0  0  0  0  0  0  0  0  0  0  0
  -28.6509  -10.2633  -11.6857 C   0  0  0  0  0  0  0  0  0  0  0  0
  -29.1120  -11.4094   -9.5913 C   0  0  0  0  0  0  0  0  0  0  0  0
  -27.7119  -11.8947   -9.1387 C   0  0  0  0  0  0  0  0  0  0  0  0
 26 27  1  0  0  0
 27 28  1  0  0  0
 27 32  2  0  0  0
 28 29  2  0  0  0
 29 30  1  0  0  0
 30 31  2  0  0  0
 31 20  1  0  0  0
 31 32  1  0  0  0
 20 21  1  0  0  0
 20 24  1  0  0  0
 21 22  2  0  0  0
 21 23  1  0  0  0
 23 19  1  0  0  0
 23 25  1  0  0  0
 19 14  1  0  0  0
 14 15  2  0  0  0
 14 18  1  0  0  0
 15 16  1  0  0  0
 16  1  1  0  0  0
 16 17  2  0  0  0
  1  2  2  0  0  0
  1  5  1  0  0  0
  2  3  1  0  0  0
  3  4  1  0  0  0
  3 13  1  0  0  0
  4  5  2  0  0  0
  4 12  1  0  0  0
  5  6  1  0  0  0
  6  7  1  0  0  0
  7  8  1  0  0  0
  7 12  2  0  0  0
  8  9  2  0  0  0
  9 33  1  0  0  0
  9 10  1  0  0  0
 33 34  1  0  0  0
 34 35  1  0  0  0
 34 40  1  0  0  0
 35 36  1  0  0  0
 36 37  1  0  0  0
 37 38  1  0  0  0
 37 39  1  0  0  0
 39 40  1  0  0  0
 10 11  2  0  0  0
 11 12  1  0  0  0
 17 18  1  0  0  0
M  END
> <minimizedAffinity>
-8.88372

$$$$
