CHEMBL1242977


 37 40  0  0  0  0  0  0  0  0999 V2000
  -27.0648   -1.9701  -10.6876 C   0  0  0  0  0  0  0  0  0  0  0  0
  -25.9727   -1.4187  -10.0098 C   0  0  0  0  0  0  0  0  0  0  0  0
  -24.8360   -0.9976  -10.6973 C   0  0  0  0  0  0  0  0  0  0  0  0
  -24.7763   -1.0610  -12.0858 C   0  0  0  0  0  0  0  0  0  0  0  0
  -25.9184   -1.4953  -12.7773 C   0  0  0  0  0  0  0  0  0  0  0  0
  -27.0835   -1.9343  -12.0901 C   0  0  0  0  0  0  0  0  0  0  0  0
  -28.3130   -2.2758  -12.8817 C   0  0  0  0  0  0  0  0  0  0  0  0
  -23.6151   -0.7136  -12.8244 N   0  0  0  0  0  0  0  0  0  0  0  0
  -23.1988    0.5772  -13.1222 C   0  0  0  0  0  0  0  0  0  0  0  0
  -23.7870    1.6190  -12.8527 O   0  0  0  0  0  0  0  0  0  0  0  0
  -23.0877   -1.4825  -13.2155 H   0  0  0  0  0  0  0  0  0  0  0  0
  -21.9421    0.7037  -13.9106 C   0  0  0  0  0  0  0  0  0  0  0  0
  -21.5258   -0.4179  -14.6417 C   0  0  0  0  0  0  0  0  0  0  0  0
  -20.3541   -0.3787  -15.3937 C   0  0  0  0  0  0  0  0  0  0  0  0
  -19.6076    0.7962  -15.4509 C   0  0  0  0  0  0  0  0  0  0  0  0
  -20.0392    1.9512  -14.7767 C   0  0  0  0  0  0  0  0  0  0  0  0
  -21.2096    1.8942  -13.9918 C   0  0  0  0  0  0  0  0  0  0  0  0
  -19.2797    3.2490  -14.9209 C   0  0  0  0  0  0  0  0  0  0  0  0
  -18.2582    3.1881  -15.8194 F   0  0  0  0  0  0  0  0  0  0  0  0
  -20.0785    4.2718  -15.3322 F   0  0  0  0  0  0  0  0  0  0  0  0
  -18.7232    3.6562  -13.7474 F   0  0  0  0  0  0  0  0  0  0  0  0
  -28.1097   -2.5493   -9.9725 O   0  0  0  0  0  0  0  0  0  0  0  0
  -28.5905   -3.1382   -7.6537 C   0  0  0  0  0  0  0  0  0  0  0  0
  -28.8013   -2.6192   -6.3544 C   0  0  0  0  0  0  0  0  0  0  0  0
  -28.6152   -1.2733   -6.0579 C   0  0  0  0  0  0  0  0  0  0  0  0
  -28.1620   -0.4547   -7.0642 C   0  0  0  0  0  0  0  0  0  0  0  0
  -27.9092   -0.8936   -8.3104 N   0  0  0  0  0  0  0  0  0  0  0  0
  -28.1831   -2.1978   -8.6134 C   0  0  0  0  0  0  0  0  0  0  0  0
  -30.1385   -6.4180   -7.3693 C   0  0  0  0  0  0  0  0  0  0  0  0
  -29.2626   -7.2817   -7.8920 N   0  0  0  0  0  0  0  0  0  0  0  0
  -28.1461   -6.7597   -8.4301 C   0  0  0  0  0  0  0  0  0  0  0  0
  -27.8601   -5.4146   -8.4462 C   0  0  0  0  0  0  0  0  0  0  0  0
  -28.7968   -4.5910   -7.8669 C   0  0  0  0  0  0  0  0  0  0  0  0
  -29.9439   -5.0943   -7.3347 N   0  0  0  0  0  0  0  0  0  0  0  0
  -31.7178   -8.2466   -7.3587 C   0  0  0  0  0  0  0  0  0  0  0  0
  -31.2583   -7.0001   -6.7951 N   0  0  0  0  0  0  0  0  0  0  0  0
  -31.9509   -6.2649   -6.6968 H   0  0  0  0  0  0  0  0  0  0  0  0
 35 36  1  0  0  0
 36 29  1  0  0  0
 36 37  1  0  0  0
 29 30  1  0  0  0
 29 34  2  0  0  0
 30 31  2  0  0  0
 31 32  1  0  0  0
 32 33  2  0  0  0
 33 23  1  0  0  0
 33 34  1  0  0  0
 23 24  1  0  0  0
 23 28  2  0  0  0
 24 25  2  0  0  0
 25 26  1  0  0  0
 26 27  2  0  0  0
 27 28  1  0  0  0
 28 22  1  0  0  0
 22  1  1  0  0  0
  1  2  1  0  0  0
  1  6  2  0  0  0
  2  3  2  0  0  0
  3  4  1  0  0  0
  4  8  1  0  0  0
  4  5  2  0  0  0
  8  9  1  0  0  0
  8 11  1  0  0  0
  9 10  2  0  0  0
  9 12  1  0  0  0
 12 13  1  0  0  0
 12 17  2  0  0  0
 13 14  2  0  0  0
 14 15  1  0  0  0
 15 16  2  0  0  0
 16 18  1  0  0  0
 16 17  1  0  0  0
 18 19  1  0  0  0
 18 20  1  0  0  0
 18 21  1  0  0  0
  5  6  1  0  0  0
  6  7  1  0  0  0
M  END
> <minimizedAffinity>
-8.56231

$$$$
