CHEMBL3891525


 30 33  0  0  0  0  0  0  0  0999 V2000
  -18.4791    2.0868  -15.4009 C   0  0  0  0  0  0  0  0  0  0  0  0
  -19.1454    3.3067  -15.5703 C   0  0  0  0  0  0  0  0  0  0  0  0
  -20.4266    3.4737  -15.0935 C   0  0  0  0  0  0  0  0  0  0  0  0
  -21.1355    2.4263  -14.5681 C   0  0  0  0  0  0  0  0  0  0  0  0
  -22.2930    2.7912  -14.0040 N   0  0  0  0  0  0  0  0  0  0  0  0
  -23.0902    1.8002  -13.5991 C   0  0  0  0  0  0  0  0  0  0  0  0
  -22.7869    0.4740  -13.8216 C   0  0  0  0  0  0  0  0  0  0  0  0
  -21.5652    0.0842  -14.3193 N   0  0  0  0  0  0  0  0  0  0  0  0
  -20.6581    1.0870  -14.6577 C   0  0  0  0  0  0  0  0  0  0  0  0
  -19.2825    0.9672  -15.0538 C   0  0  0  0  0  0  0  0  0  0  0  0
  -23.8932   -0.4582  -13.5962 C   0  0  0  0  0  0  0  0  0  0  0  0
  -24.7173   -1.1200  -14.5478 C   0  0  0  0  0  0  0  0  0  0  0  0
  -25.8187   -1.6555  -14.0064 N   0  0  0  0  0  0  0  0  0  0  0  0
  -25.7172   -1.3283  -12.7079 N   0  0  0  0  0  0  0  0  0  0  0  0
  -26.5980   -1.9237  -11.7307 C   0  0  0  0  0  0  0  0  0  0  0  0
  -24.6732   -0.4818  -12.4503 C   0  0  0  0  0  0  0  0  0  0  0  0
  -17.0407    2.1620  -15.4184 N   0  0  0  0  0  0  0  0  0  0  0  0
  -13.9372   -0.0016  -15.5879 C   0  0  0  0  0  0  0  0  0  0  0  0
  -13.9471   -0.5719  -14.3254 C   0  0  0  0  0  0  0  0  0  0  0  0
  -14.9977   -0.2939  -13.4484 C   0  0  0  0  0  0  0  0  0  0  0  0
  -16.0320    0.5787  -13.8278 C   0  0  0  0  0  0  0  0  0  0  0  0
  -16.0325    1.2262  -15.0630 C   0  0  0  0  0  0  0  0  0  0  0  0
  -14.9874    0.8549  -15.9530 C   0  0  0  0  0  0  0  0  0  0  0  0
  -12.5433   -1.5428  -16.7517 C   0  0  0  0  0  0  0  0  0  0  0  0
  -12.9760   -0.2004  -16.5448 O   0  0  0  0  0  0  0  0  0  0  0  0
  -15.1281   -0.8127  -12.1868 O   0  0  0  0  0  0  0  0  0  0  0  0
  -15.5117   -2.1808  -12.1066 C   0  0  0  0  0  0  0  0  0  0  0  0
  -16.6049    3.5672  -15.6607 C   0  0  0  0  0  0  0  0  0  0  0  0
  -15.9483    3.7332  -17.0270 C   0  0  0  0  0  0  0  0  0  0  0  0
  -15.6548    5.0501  -17.2118 F   0  0  0  0  0  0  0  0  0  0  0  0
 24 25  1  0  0  0
 25 18  1  0  0  0
 18 19  1  0  0  0
 18 23  2  0  0  0
 19 20  2  0  0  0
 20 26  1  0  0  0
 20 21  1  0  0  0
 26 27  1  0  0  0
 21 22  2  0  0  0
 22 17  1  0  0  0
 22 23  1  0  0  0
 17 28  1  0  0  0
 17  1  1  0  0  0
 28 29  1  0  0  0
 29 30  1  0  0  0
  1  2  1  0  0  0
  1 10  2  0  0  0
  2  3  2  0  0  0
  3  4  1  0  0  0
  4  5  1  0  0  0
  4  9  2  0  0  0
  5  6  2  0  0  0
  6  7  1  0  0  0
  7 11  1  0  0  0
  7  8  2  0  0  0
 11 12  1  0  0  0
 11 16  2  0  0  0
 12 13  2  0  0  0
 13 14  1  0  0  0
 14 15  1  0  0  0
 14 16  1  0  0  0
  8  9  1  0  0  0
  9 10  1  0  0  0
M  END
> <minimizedAffinity>
-8.65700

$$$$
