CHEMBL191251


 24 26  0  0  0  0  0  0  0  0999 V2000
  -30.5246   -5.7066   -5.1254 C   0  0  0  0  0  0  0  0  0  0  0  0
  -31.6493   -5.8498   -4.3152 C   0  0  0  0  0  0  0  0  0  0  0  0
  -31.9696   -4.9821   -3.3258 N   0  0  0  0  0  0  0  0  0  0  0  0
  -31.1084   -3.9481   -3.1735 C   0  0  0  0  0  0  0  0  0  0  0  0
  -29.9488   -3.7886   -3.9329 C   0  0  0  0  0  0  0  0  0  0  0  0
  -29.6759   -4.6639   -4.9294 N   0  0  0  0  0  0  0  0  0  0  0  0
  -27.5670   -7.0899   -8.8366 N   0  0  0  0  0  0  0  0  0  0  0  0
  -28.7644   -7.2337   -8.1256 C   0  0  0  0  0  0  0  0  0  0  0  0
  -29.6051   -8.3259   -8.3141 C   0  0  0  0  0  0  0  0  0  0  0  0
  -30.7096   -8.5834   -7.5756 N   0  0  0  0  0  0  0  0  0  0  0  0
  -30.9683   -7.7227   -6.5638 C   0  0  0  0  0  0  0  0  0  0  0  0
  -30.1879   -6.6147   -6.2355 C   0  0  0  0  0  0  0  0  0  0  0  0
  -29.0473   -6.4110   -7.0327 C   0  0  0  0  0  0  0  0  0  0  0  0
  -27.5846   -7.4863   -9.7711 H   0  0  0  0  0  0  0  0  0  0  0  0
  -27.1924   -6.1454   -8.8243 H   0  0  0  0  0  0  0  0  0  0  0  0
  -29.1000   -2.6756   -3.7162 N   0  0  0  0  0  0  0  0  0  0  0  0
  -28.1950   -2.9881   -3.3739 H   0  0  0  0  0  0  0  0  0  0  0  0
  -28.8642   -1.6561   -4.6755 C   0  0  0  0  0  0  0  0  0  0  0  0
  -27.6153   -1.4875   -5.2938 C   0  0  0  0  0  0  0  0  0  0  0  0
  -27.3729   -0.4152   -6.1531 C   0  0  0  0  0  0  0  0  0  0  0  0
  -28.3781    0.5166   -6.3948 C   0  0  0  0  0  0  0  0  0  0  0  0
  -29.6155    0.3722   -5.7704 C   0  0  0  0  0  0  0  0  0  0  0  0
  -30.8539    1.5334   -6.0597 Cl  0  0  0  0  0  0  0  0  0  0  0  0
  -29.8585   -0.6968   -4.9060 C   0  0  0  0  0  0  0  0  0  0  0  0
  7  8  1  0  0  0
  7 14  1  0  0  0
  7 15  1  0  0  0
  8  9  1  0  0  0
  8 13  2  0  0  0
  9 10  2  0  0  0
 10 11  1  0  0  0
 11 12  2  0  0  0
 12  1  1  0  0  0
 12 13  1  0  0  0
  1  2  1  0  0  0
  1  6  2  0  0  0
  2  3  2  0  0  0
  3  4  1  0  0  0
  4  5  2  0  0  0
  5 16  1  0  0  0
  5  6  1  0  0  0
 16 18  1  0  0  0
 16 17  1  0  0  0
 18 19  1  0  0  0
 18 24  2  0  0  0
 19 20  2  0  0  0
 20 21  1  0  0  0
 21 22  2  0  0  0
 22 23  1  0  0  0
 22 24  1  0  0  0
M  END
> <minimizedAffinity>
-8.05525

$$$$
