CHEMBL1760057


 36 40  0  0  0  0  0  0  0  0999 V2000
  -29.4346   -6.2778   -3.8583 C   0  0  0  0  0  0  0  0  0  0  0  0
  -30.7182   -6.5006   -3.4236 C   0  0  0  0  0  0  0  0  0  0  0  0
  -31.5821   -5.4356   -3.5362 C   0  0  0  0  0  0  0  0  0  0  0  0
  -31.2233   -4.2225   -3.9994 N   0  0  0  0  0  0  0  0  0  0  0  0
  -29.9405   -4.0741   -4.3520 C   0  0  0  0  0  0  0  0  0  0  0  0
  -29.0551   -5.0746   -4.2993 N   0  0  0  0  0  0  0  0  0  0  0  0
  -28.4980   -7.3338   -3.8617 N   0  0  0  0  0  0  0  0  0  0  0  0
  -27.6578   -7.0603   -3.3658 H   0  0  0  0  0  0  0  0  0  0  0  0
  -29.0077   -9.5561   -9.5699 C   0  0  0  0  0  0  0  0  0  0  0  0
  -27.9372  -10.4387   -9.4634 C   0  0  0  0  0  0  0  0  0  0  0  0
  -27.2288  -10.5258   -8.2644 C   0  0  0  0  0  0  0  0  0  0  0  0
  -27.5646   -9.7514   -7.1642 C   0  0  0  0  0  0  0  0  0  0  0  0
  -26.8476   -9.8770   -6.0424 N   0  0  0  0  0  0  0  0  0  0  0  0
  -27.2002   -9.1092   -4.9803 C   0  0  0  0  0  0  0  0  0  0  0  0
  -28.2500   -8.1911   -4.9578 C   0  0  0  0  0  0  0  0  0  0  0  0
  -28.9651   -8.0596   -6.1504 C   0  0  0  0  0  0  0  0  0  0  0  0
  -28.6459   -8.8518   -7.2717 C   0  0  0  0  0  0  0  0  0  0  0  0
  -29.3628   -8.7628   -8.4791 C   0  0  0  0  0  0  0  0  0  0  0  0
  -29.5481   -2.8305   -4.8418 N   0  0  0  0  0  0  0  0  0  0  0  0
  -29.8225   -2.0898   -4.2174 H   0  0  0  0  0  0  0  0  0  0  0  0
  -29.0326   -2.4883   -6.0997 C   0  0  0  0  0  0  0  0  0  0  0  0
  -29.0894   -3.4163   -7.1452 C   0  0  0  0  0  0  0  0  0  0  0  0
  -28.4778   -3.1547   -8.3790 C   0  0  0  0  0  0  0  0  0  0  0  0
  -27.7973   -1.9557   -8.5871 C   0  0  0  0  0  0  0  0  0  0  0  0
  -27.7422   -1.0196   -7.5613 C   0  0  0  0  0  0  0  0  0  0  0  0
  -28.3600   -1.2822   -6.3371 C   0  0  0  0  0  0  0  0  0  0  0  0
  -27.1045   -1.6241   -9.7189 O   0  0  0  0  0  0  0  0  0  0  0  0
  -27.9140   -1.2292  -10.8252 C   0  0  0  0  0  0  0  0  0  0  0  0
  -27.2493   -1.7328  -12.1044 C   0  0  0  0  0  0  0  0  0  0  0  0
  -25.7957   -2.1500  -11.8602 C   0  0  0  0  0  0  0  0  0  0  0  0
  -24.8140   -1.1846  -12.3814 N   0  0  0  0  0  0  0  0  0  0  0  0
  -23.4973   -1.3321  -11.7412 C   0  0  0  0  0  0  0  0  0  0  0  0
  -22.5212   -0.2651  -12.2356 C   0  0  0  0  0  0  0  0  0  0  0  0
  -22.3858   -0.3008  -13.7494 C   0  0  0  0  0  0  0  0  0  0  0  0
  -23.7587   -0.2344  -14.4091 C   0  0  0  0  0  0  0  0  0  0  0  0
  -24.7016   -1.2977  -13.8439 C   0  0  0  0  0  0  0  0  0  0  0  0
  9 10  1  0  0  0
  9 18  2  0  0  0
 10 11  2  0  0  0
 11 12  1  0  0  0
 12 13  1  0  0  0
 12 17  2  0  0  0
 13 14  2  0  0  0
 14 15  1  0  0  0
 15  7  1  0  0  0
 15 16  2  0  0  0
  7  1  1  0  0  0
  7  8  1  0  0  0
  1  2  1  0  0  0
  1  6  2  0  0  0
  2  3  2  0  0  0
  3  4  1  0  0  0
  4  5  2  0  0  0
  5 19  1  0  0  0
  5  6  1  0  0  0
 19 21  1  0  0  0
 19 20  1  0  0  0
 21 22  1  0  0  0
 21 26  2  0  0  0
 22 23  2  0  0  0
 23 24  1  0  0  0
 24 27  1  0  0  0
 24 25  2  0  0  0
 27 28  1  0  0  0
 28 29  1  0  0  0
 29 30  1  0  0  0
 30 31  1  0  0  0
 31 32  1  0  0  0
 31 36  1  0  0  0
 32 33  1  0  0  0
 33 34  1  0  0  0
 34 35  1  0  0  0
 35 36  1  0  0  0
 25 26  1  0  0  0
 16 17  1  0  0  0
 17 18  1  0  0  0
M  END
> <minimizedAffinity>
-9.45754

$$$$
