CHEMBL246546


 25 28  0  0  0  0  0  0  0  0999 V2000
  -28.1016   -1.8188   -7.7441 C   0  0  0  0  0  0  0  0  0  0  0  0
  -27.8340   -0.6912   -6.9427 C   0  0  0  0  0  0  0  0  0  0  0  0
  -28.1255   -0.6763   -5.5634 C   0  0  0  0  0  0  0  0  0  0  0  0
  -28.6907   -1.7862   -4.9380 C   0  0  0  0  0  0  0  0  0  0  0  0
  -28.9423   -2.8897   -5.7234 C   0  0  0  0  0  0  0  0  0  0  0  0
  -28.6563   -2.9289   -7.1141 C   0  0  0  0  0  0  0  0  0  0  0  0
  -29.0428   -4.2621   -7.7756 C   0  0  0  0  0  0  0  0  0  0  0  0
  -29.5748   -4.9393   -6.5630 C   0  0  0  0  0  0  0  0  0  0  0  0
  -29.5167   -4.1501   -5.4067 C   0  0  0  0  0  0  0  0  0  0  0  0
  -30.0151   -4.7361   -4.3272 N   0  0  0  0  0  0  0  0  0  0  0  0
  -30.4048   -5.9416   -4.8219 N   0  0  0  0  0  0  0  0  0  0  0  0
  -30.1543   -6.1153   -6.1688 C   0  0  0  0  0  0  0  0  0  0  0  0
  -30.8334   -6.6004   -4.1834 H   0  0  0  0  0  0  0  0  0  0  0  0
  -30.4624   -7.3177   -6.9880 C   0  0  0  0  0  0  0  0  0  0  0  0
  -29.5626   -7.9499   -7.8985 C   0  0  0  0  0  0  0  0  0  0  0  0
  -30.1233   -9.0481   -8.5140 C   0  0  0  0  0  0  0  0  0  0  0  0
  -31.7327   -9.3145   -8.0055 S   0  0  0  0  0  0  0  0  0  0  0  0
  -31.6800   -7.9638   -6.9514 C   0  0  0  0  0  0  0  0  0  0  0  0
  -27.8391   -1.7989   -9.2284 C   0  0  0  0  0  0  0  0  0  0  0  0
  -26.4398   -2.0626   -9.5803 N   0  0  0  0  0  0  0  0  0  0  0  0
  -25.8551   -1.4609   -8.9938 H   0  0  0  0  0  0  0  0  0  0  0  0
  -26.1019   -1.7242  -10.9751 C   0  0  0  0  0  0  0  0  0  0  0  0
  -27.6094   -2.3998  -12.7440 O   0  0  0  0  0  0  0  0  0  0  0  0
  -27.3122   -1.3407  -11.8352 C   0  0  0  0  0  0  0  0  0  0  0  0
  -28.3779   -2.1137  -13.2668 H   0  0  0  0  0  0  0  0  0  0  0  0
 23 24  1  0  0  0
 23 25  1  0  0  0
 24 22  1  0  0  0
 22 20  1  0  0  0
 20 19  1  0  0  0
 20 21  1  0  0  0
 19  1  1  0  0  0
  1  2  1  0  0  0
  1  6  2  0  0  0
  2  3  2  0  0  0
  3  4  1  0  0  0
  4  5  2  0  0  0
  5  6  1  0  0  0
  5  9  1  0  0  0
  6  7  1  0  0  0
  7  8  1  0  0  0
  8  9  1  0  0  0
  8 12  2  0  0  0
  9 10  2  0  0  0
 10 11  1  0  0  0
 11 12  1  0  0  0
 11 13  1  0  0  0
 12 14  1  0  0  0
 14 15  1  0  0  0
 14 18  2  0  0  0
 15 16  2  0  0  0
 16 17  1  0  0  0
 17 18  1  0  0  0
M  END
> <minimizedAffinity>
-8.12692

$$$$
