CHEMBL385055


 41 45  0  0  0  0  0  0  0  0999 V2000
  -29.7597   -5.4054   -7.4936 C   0  0  0  0  0  0  0  0  0  0  0  0
  -30.7760   -4.8578   -7.9067 O   0  0  0  0  0  0  0  0  0  0  0  0
  -28.4949   -4.8447   -7.4289 N   0  0  0  0  0  0  0  0  0  0  0  0
  -27.7253   -5.4508   -7.1990 H   0  0  0  0  0  0  0  0  0  0  0  0
  -28.7813   -8.7377   -5.9322 C   0  0  0  0  0  0  0  0  0  0  0  0
  -28.8074   -7.3883   -6.3404 C   0  0  0  0  0  0  0  0  0  0  0  0
  -29.8628   -6.8325   -7.0858 C   0  0  0  0  0  0  0  0  0  0  0  0
  -30.9374   -7.6367   -7.4539 C   0  0  0  0  0  0  0  0  0  0  0  0
  -30.9603   -8.9648   -7.0416 C   0  0  0  0  0  0  0  0  0  0  0  0
  -29.9064   -9.5295   -6.2872 C   0  0  0  0  0  0  0  0  0  0  0  0
  -30.0633  -10.9830   -5.9159 C   0  0  0  0  0  0  0  0  0  0  0  0
  -23.0687  -10.9636   -3.8728 C   0  0  0  0  0  0  0  0  0  0  0  0
  -22.9443  -10.7732   -5.1921 N   0  0  0  0  0  0  0  0  0  0  0  0
  -24.0324  -10.3209   -5.8427 C   0  0  0  0  0  0  0  0  0  0  0  0
  -25.2386  -10.0373   -5.2247 C   0  0  0  0  0  0  0  0  0  0  0  0
  -26.3900   -9.5641   -5.8987 C   0  0  0  0  0  0  0  0  0  0  0  0
  -27.5751   -9.2411   -5.2077 C   0  0  0  0  0  0  0  0  0  0  0  0
  -27.5289   -9.4042   -3.8168 C   0  0  0  0  0  0  0  0  0  0  0  0
  -26.4034   -9.9295   -3.1640 C   0  0  0  0  0  0  0  0  0  0  0  0
  -25.2459  -10.2466   -3.8496 C   0  0  0  0  0  0  0  0  0  0  0  0
  -24.1848  -10.7099   -3.1785 N   0  0  0  0  0  0  0  0  0  0  0  0
  -22.3851  -12.1242   -1.9199 C   0  0  0  0  0  0  0  0  0  0  0  0
  -21.9952  -11.4160   -3.1179 N   0  0  0  0  0  0  0  0  0  0  0  0
  -21.4117  -11.9389   -3.7616 H   0  0  0  0  0  0  0  0  0  0  0  0
  -28.1453   -3.5048   -7.7272 C   0  0  0  0  0  0  0  0  0  0  0  0
  -27.6149   -3.1769   -8.9859 C   0  0  0  0  0  0  0  0  0  0  0  0
  -27.3267   -1.8557   -9.3510 C   0  0  0  0  0  0  0  0  0  0  0  0
  -27.5887   -0.8387   -8.4316 C   0  0  0  0  0  0  0  0  0  0  0  0
  -28.1385   -1.1425   -7.1815 C   0  0  0  0  0  0  0  0  0  0  0  0
  -28.4144   -2.4689   -6.7993 C   0  0  0  0  0  0  0  0  0  0  0  0
  -28.9316   -2.7185   -5.5080 N   0  0  0  0  0  0  0  0  0  0  0  0
  -30.3368   -2.7458   -5.0825 C   0  0  0  0  0  0  0  0  0  0  0  0
  -29.8795   -3.6021   -3.8645 C   0  0  0  0  0  0  0  0  0  0  0  0
  -29.8758   -2.8616   -2.5288 C   0  0  0  0  0  0  0  0  0  0  0  0
  -30.5288   -4.9774   -3.7561 C   0  0  0  0  0  0  0  0  0  0  0  0
  -28.5047   -3.6182   -4.5752 C   0  0  0  0  0  0  0  0  0  0  0  0
  -27.4535   -4.1943   -4.3910 O   0  0  0  0  0  0  0  0  0  0  0  0
  -26.7627   -1.5407  -10.7152 C   0  0  0  0  0  0  0  0  0  0  0  0
  -26.5571   -2.6385  -11.4940 F   0  0  0  0  0  0  0  0  0  0  0  0
  -27.5793   -0.7234  -11.4367 F   0  0  0  0  0  0  0  0  0  0  0  0
  -25.5619   -0.9024  -10.6462 F   0  0  0  0  0  0  0  0  0  0  0  0
 22 23  1  0  0  0
 23 12  1  0  0  0
 23 24  1  0  0  0
 12 13  1  0  0  0
 12 21  2  0  0  0
 13 14  2  0  0  0
 14 15  1  0  0  0
 15 16  1  0  0  0
 15 20  2  0  0  0
 16 17  2  0  0  0
 17  5  1  0  0  0
 17 18  1  0  0  0
  5  6  1  0  0  0
  5 10  2  0  0  0
  6  7  2  0  0  0
  7  1  1  0  0  0
  7  8  1  0  0  0
  1  2  2  0  0  0
  1  3  1  0  0  0
  3 25  1  0  0  0
  3  4  1  0  0  0
 25 26  1  0  0  0
 25 30  2  0  0  0
 26 27  2  0  0  0
 27 38  1  0  0  0
 27 28  1  0  0  0
 38 39  1  0  0  0
 38 40  1  0  0  0
 38 41  1  0  0  0
 28 29  2  0  0  0
 29 30  1  0  0  0
 30 31  1  0  0  0
 31 32  1  0  0  0
 31 36  1  0  0  0
 32 33  1  0  0  0
 33 34  1  0  0  0
 33 35  1  0  0  0
 33 36  1  0  0  0
 36 37  2  0  0  0
  8  9  2  0  0  0
  9 10  1  0  0  0
 10 11  1  0  0  0
 18 19  2  0  0  0
 19 20  1  0  0  0
 20 21  1  0  0  0
M  END
> <minimizedAffinity>
-9.75022

$$$$
