CHEMBL475708


 28 30  0  0  0  0  0  0  0  0999 V2000
  -28.3302   -5.4501   -5.0231 N   0  0  0  0  0  0  0  0  0  0  0  0
  -29.3138   -6.3243   -4.5712 C   0  0  0  0  0  0  0  0  0  0  0  0
  -30.4396   -6.0071   -4.1999 O   0  0  0  0  0  0  0  0  0  0  0  0
  -27.4638   -5.8973   -5.3020 H   0  0  0  0  0  0  0  0  0  0  0  0
  -28.7110   -1.2229   -5.4938 C   0  0  0  0  0  0  0  0  0  0  0  0
  -28.4635   -1.7971   -4.2385 C   0  0  0  0  0  0  0  0  0  0  0  0
  -28.3170   -3.1787   -4.0717 C   0  0  0  0  0  0  0  0  0  0  0  0
  -28.4276   -4.0485   -5.1501 C   0  0  0  0  0  0  0  0  0  0  0  0
  -28.6656   -3.5003   -6.4131 C   0  0  0  0  0  0  0  0  0  0  0  0
  -28.8126   -2.1092   -6.5805 C   0  0  0  0  0  0  0  0  0  0  0  0
  -30.4260    0.6860   -5.4869 C   0  0  0  0  0  0  0  0  0  0  0  0
  -28.9337    0.2947   -5.6308 C   0  0  0  0  0  0  0  0  0  0  0  0
  -28.4523    0.7293   -7.0294 C   0  0  0  0  0  0  0  0  0  0  0  0
  -28.1690    1.1177   -4.5714 C   0  0  0  0  0  0  0  0  0  0  0  0
  -28.8904   -7.7404   -4.5660 C   0  0  0  0  0  0  0  0  0  0  0  0
  -29.0180   -8.4682   -3.4438 N   0  0  0  0  0  0  0  0  0  0  0  0
  -28.5060  -10.0142   -3.7391 S   0  0  0  0  0  0  0  0  0  0  0  0
  -28.1089   -9.7727   -5.3805 C   0  0  0  0  0  0  0  0  0  0  0  0
  -28.3603   -8.4593   -5.7131 C   0  0  0  0  0  0  0  0  0  0  0  0
  -28.1230   -7.9102   -6.9394 N   0  0  0  0  0  0  0  0  0  0  0  0
  -27.1989   -7.5121   -7.1272 H   0  0  0  0  0  0  0  0  0  0  0  0
  -29.1845   -7.4442   -7.8198 C   0  0  0  0  0  0  0  0  0  0  0  0
  -30.4293   -8.3043   -7.7538 C   0  0  0  0  0  0  0  0  0  0  0  0
  -31.5960   -7.7862   -7.1751 C   0  0  0  0  0  0  0  0  0  0  0  0
  -32.7500   -8.5574   -7.1732 C   0  0  0  0  0  0  0  0  0  0  0  0
  -32.8266   -9.7929   -7.7069 N   0  0  0  0  0  0  0  0  0  0  0  0
  -31.7017  -10.2731   -8.2775 C   0  0  0  0  0  0  0  0  0  0  0  0
  -30.5040   -9.5744   -8.3379 C   0  0  0  0  0  0  0  0  0  0  0  0
 11 12  1  0  0  0
 12 13  1  0  0  0
 12 14  1  0  0  0
 12  5  1  0  0  0
  5  6  1  0  0  0
  5 10  2  0  0  0
  6  7  2  0  0  0
  7  8  1  0  0  0
  8  1  1  0  0  0
  8  9  2  0  0  0
  1  2  1  0  0  0
  1  4  1  0  0  0
  2  3  2  0  0  0
  2 15  1  0  0  0
 15 16  2  0  0  0
 15 19  1  0  0  0
 16 17  1  0  0  0
 17 18  1  0  0  0
 18 19  2  0  0  0
 19 20  1  0  0  0
 20 22  1  0  0  0
 20 21  1  0  0  0
 22 23  1  0  0  0
 23 24  1  0  0  0
 23 28  2  0  0  0
 24 25  2  0  0  0
 25 26  1  0  0  0
 26 27  2  0  0  0
 27 28  1  0  0  0
  9 10  1  0  0  0
M  END
> <minimizedAffinity>
-8.63724

$$$$
