CHEMBL603469


 36 43  0  0  0  0  0  0  0  0999 V2000
  -12.1331   -4.6231  -12.1032 C   0  0  0  0  0  0  0  0  0  0  0  0
  -12.8937   -5.1587  -13.3207 C   0  0  0  0  0  0  0  0  0  0  0  0
  -12.9471   -4.0211  -14.2371 O   0  0  0  0  0  0  0  0  0  0  0  0
  -13.9969   -4.2676  -15.1824 C   0  0  0  0  0  0  0  0  0  0  0  0
  -15.0131   -5.2196  -14.4851 C   0  0  0  0  0  0  0  0  0  0  0  0
  -14.4281   -5.4637  -13.0842 C   0  0  0  0  0  0  0  0  0  0  0  0
  -14.7365   -6.7784  -12.6038 O   0  0  0  0  0  0  0  0  0  0  0  0
  -13.3308   -4.8438  -16.3466 N   0  0  0  0  0  0  0  0  0  0  0  0
  -13.5576   -4.6590  -17.7360 C   0  0  0  0  0  0  0  0  0  0  0  0
  -13.7735   -3.4934  -18.4967 C   0  0  0  0  0  0  0  0  0  0  0  0
  -13.9775   -3.5896  -19.8890 C   0  0  0  0  0  0  0  0  0  0  0  0
  -14.0194   -4.8208  -20.5316 C   0  0  0  0  0  0  0  0  0  0  0  0
  -13.7958   -5.9867  -19.8087 C   0  0  0  0  0  0  0  0  0  0  0  0
  -13.5133   -5.9490  -18.4220 C   0  0  0  0  0  0  0  0  0  0  0  0
  -13.1715   -6.9219  -17.4611 C   0  0  0  0  0  0  0  0  0  0  0  0
  -13.2473   -8.3264  -17.6050 C   0  0  0  0  0  0  0  0  0  0  0  0
  -13.0817   -9.0224  -16.3773 C   0  0  0  0  0  0  0  0  0  0  0  0
  -12.7132   -8.1991  -15.2986 C   0  0  0  0  0  0  0  0  0  0  0  0
  -12.6362   -8.5357  -13.9408 C   0  0  0  0  0  0  0  0  0  0  0  0
  -13.2332   -9.3633  -12.9852 C   0  0  0  0  0  0  0  0  0  0  0  0
  -12.7002   -9.3493  -11.6896 C   0  0  0  0  0  0  0  0  0  0  0  0
  -11.4234   -8.8295  -11.5100 C   0  0  0  0  0  0  0  0  0  0  0  0
  -10.8730   -7.9364  -12.4404 C   0  0  0  0  0  0  0  0  0  0  0  0
  -11.7979   -7.5090  -13.4013 C   0  0  0  0  0  0  0  0  0  0  0  0
  -12.1696   -6.2657  -13.9976 N   0  0  0  0  0  0  0  0  0  0  0  0
  -12.5395   -6.8105  -15.2051 C   0  0  0  0  0  0  0  0  0  0  0  0
  -12.9372   -6.1344  -16.3413 C   0  0  0  0  0  0  0  0  0  0  0  0
  -13.1691  -10.4564  -16.5448 C   0  0  0  0  0  0  0  0  0  0  0  0
  -13.5660  -10.4782  -17.9412 N   0  0  0  0  0  0  0  0  0  0  0  0
  -13.5700   -9.2622  -18.6392 C   0  0  0  0  0  0  0  0  0  0  0  0
  -13.8113   -9.1840  -19.8108 O   0  0  0  0  0  0  0  0  0  0  0  0
  -14.6211   -7.4035  -13.3367 H   0  0  0  0  0  0  0  0  0  0  0  0
  -13.7673  -11.3231  -18.4590 H   0  0  0  0  0  0  0  0  0  0  0  0
  -15.1624   -4.5912  -12.0451 C   0  0  0  0  0  0  0  0  0  0  0  0
  -15.7313   -5.3921  -11.0046 O   0  0  0  0  0  0  0  0  0  0  0  0
  -16.1668   -6.1432  -11.4580 H   0  0  0  0  0  0  0  0  0  0  0  0
  2  1  1  0  0  0
  2  3  1  0  0  0
  2  6  1  0  0  0
  2 25  1  0  0  0
  3  4  1  0  0  0
  4  5  1  0  0  0
  4  8  1  0  0  0
  5  6  1  0  0  0
  6  7  1  0  0  0
  6 34  1  0  0  0
  7 32  1  0  0  0
 34 35  1  0  0  0
 35 36  1  0  0  0
  8  9  1  0  0  0
  8 27  1  0  0  0
  9 10  1  0  0  0
  9 14  2  0  0  0
 10 11  2  0  0  0
 11 12  1  0  0  0
 12 13  2  0  0  0
 13 14  1  0  0  0
 14 15  1  0  0  0
 15 16  1  0  0  0
 15 27  2  0  0  0
 16 17  2  0  0  0
 16 30  1  0  0  0
 17 18  1  0  0  0
 17 28  1  0  0  0
 18 19  1  0  0  0
 18 26  2  0  0  0
 19 20  1  0  0  0
 19 24  2  0  0  0
 20 21  2  0  0  0
 21 22  1  0  0  0
 22 23  2  0  0  0
 23 24  1  0  0  0
 24 25  1  0  0  0
 25 26  1  0  0  0
 26 27  1  0  0  0
 28 29  1  0  0  0
 29 30  1  0  0  0
 29 33  1  0  0  0
 30 31  2  0  0  0
M  END
> <minimizedAffinity>
-8.00147

$$$$
