CHEMBL2348990


 35 39  0  0  0  0  0  0  0  0999 V2000
  -26.2882   -2.1481  -11.8985 C   0  0  0  0  0  0  0  0  0  0  0  0
  -24.9059   -1.9258  -11.9942 C   0  0  0  0  0  0  0  0  0  0  0  0
  -24.3261   -1.4989  -13.1911 C   0  0  0  0  0  0  0  0  0  0  0  0
  -25.1001   -1.3460  -14.3353 C   0  0  0  0  0  0  0  0  0  0  0  0
  -26.4778   -1.5515  -14.2593 C   0  0  0  0  0  0  0  0  0  0  0  0
  -27.0674   -1.9477  -13.0520 C   0  0  0  0  0  0  0  0  0  0  0  0
  -28.7847   -2.1564  -13.0190 Cl  0  0  0  0  0  0  0  0  0  0  0  0
  -27.6940   -1.8033   -9.8599 C   0  0  0  0  0  0  0  0  0  0  0  0
  -28.0206   -0.6615  -10.1713 O   0  0  0  0  0  0  0  0  0  0  0  0
  -26.9132   -2.5894  -10.6936 N   0  0  0  0  0  0  0  0  0  0  0  0
  -26.8652   -3.5829  -10.5064 H   0  0  0  0  0  0  0  0  0  0  0  0
  -29.5583   -4.6977   -6.0934 C   0  0  0  0  0  0  0  0  0  0  0  0
  -28.9531   -3.6422   -6.9405 C   0  0  0  0  0  0  0  0  0  0  0  0
  -28.6298   -3.6639   -8.3175 C   0  0  0  0  0  0  0  0  0  0  0  0
  -28.1423   -2.3981   -8.6175 C   0  0  0  0  0  0  0  0  0  0  0  0
  -28.1427   -1.7377   -7.4035 N   0  0  0  0  0  0  0  0  0  0  0  0
  -27.7021   -0.4029   -7.0651 C   0  0  0  0  0  0  0  0  0  0  0  0
  -28.6535   -2.4664   -6.3925 N   0  0  0  0  0  0  0  0  0  0  0  0
  -22.9248   -1.2956  -13.1600 O   0  0  0  0  0  0  0  0  0  0  0  0
  -22.3291   -0.1166  -13.5919 C   0  0  0  0  0  0  0  0  0  0  0  0
  -23.2538    1.0089  -13.3187 C   0  0  0  0  0  0  0  0  0  0  0  0
  -22.8219    2.2317  -13.6641 C   0  0  0  0  0  0  0  0  0  0  0  0
  -21.5389    2.3706  -14.2435 C   0  0  0  0  0  0  0  0  0  0  0  0
  -20.8763    3.4292  -14.6507 N   0  0  0  0  0  0  0  0  0  0  0  0
  -19.6793    2.9580  -15.1082 C   0  0  0  0  0  0  0  0  0  0  0  0
  -19.6019    1.5925  -14.9741 C   0  0  0  0  0  0  0  0  0  0  0  0
  -20.8013    1.2184  -14.4363 N   0  0  0  0  0  0  0  0  0  0  0  0
  -21.1591   -0.0540  -14.1374 N   0  0  0  0  0  0  0  0  0  0  0  0
  -18.6888    3.7446  -15.6402 N   0  0  0  0  0  0  0  0  0  0  0  0
  -17.3522    3.4182  -15.6197 C   0  0  0  0  0  0  0  0  0  0  0  0
  -16.8310    2.4046  -15.1779 O   0  0  0  0  0  0  0  0  0  0  0  0
  -18.9729    4.6294  -16.0334 H   0  0  0  0  0  0  0  0  0  0  0  0
  -16.4856    4.4985  -16.1893 C   0  0  0  0  0  0  0  0  0  0  0  0
  -15.6298    4.2370  -17.4083 C   0  0  0  0  0  0  0  0  0  0  0  0
  -14.9857    4.3728  -16.0593 C   0  0  0  0  0  0  0  0  0  0  0  0
 12 13  1  0  0  0
 13 14  1  0  0  0
 13 18  2  0  0  0
 14 15  2  0  0  0
 15  8  1  0  0  0
 15 16  1  0  0  0
  8  9  2  0  0  0
  8 10  1  0  0  0
 10  1  1  0  0  0
 10 11  1  0  0  0
  1  2  1  0  0  0
  1  6  2  0  0  0
  2  3  2  0  0  0
  3 19  1  0  0  0
  3  4  1  0  0  0
 19 20  1  0  0  0
 20 21  1  0  0  0
 20 28  2  0  0  0
 21 22  2  0  0  0
 22 23  1  0  0  0
 23 24  2  0  0  0
 23 27  1  0  0  0
 24 25  1  0  0  0
 25 29  1  0  0  0
 25 26  2  0  0  0
 29 30  1  0  0  0
 29 32  1  0  0  0
 30 31  2  0  0  0
 30 33  1  0  0  0
 33 34  1  0  0  0
 33 35  1  0  0  0
 34 35  1  0  0  0
 26 27  1  0  0  0
 27 28  1  0  0  0
  4  5  2  0  0  0
  5  6  1  0  0  0
  6  7  1  0  0  0
 16 17  1  0  0  0
 16 18  1  0  0  0
M  END
> <minimizedAffinity>
-10.37786

$$$$
