CHEMBL378831


 40 45  0  0  0  0  0  0  0  0999 V2000
  -14.6894    4.9729  -18.4111 C   0  0  0  0  0  0  0  0  0  0  0  0
  -15.2989    4.5979  -17.1825 C   0  0  0  0  0  0  0  0  0  0  0  0
  -15.2574    3.2910  -16.6979 C   0  0  0  0  0  0  0  0  0  0  0  0
  -14.6591    2.3373  -17.4922 C   0  0  0  0  0  0  0  0  0  0  0  0
  -14.1234    2.6996  -18.7576 C   0  0  0  0  0  0  0  0  0  0  0  0
  -14.0933    3.9960  -19.2196 C   0  0  0  0  0  0  0  0  0  0  0  0
  -13.6957    1.4808  -19.3509 C   0  0  0  0  0  0  0  0  0  0  0  0
  -13.2181    1.0871  -20.5215 N   0  0  0  0  0  0  0  0  0  0  0  0
  -13.1019   -0.2544  -20.3334 N   0  0  0  0  0  0  0  0  0  0  0  0
  -13.4950   -0.6928  -19.0815 C   0  0  0  0  0  0  0  0  0  0  0  0
  -13.9155    0.4380  -18.4449 C   0  0  0  0  0  0  0  0  0  0  0  0
  -14.5053    0.8591  -17.1527 C   0  0  0  0  0  0  0  0  0  0  0  0
  -12.7472   -0.8242  -21.0931 H   0  0  0  0  0  0  0  0  0  0  0  0
  -13.4658   -2.0455  -18.6394 C   0  0  0  0  0  0  0  0  0  0  0  0
  -13.7674   -3.1719  -19.3663 C   0  0  0  0  0  0  0  0  0  0  0  0
  -13.5169   -4.3683  -18.6362 C   0  0  0  0  0  0  0  0  0  0  0  0
  -12.9765   -4.1023  -17.3921 C   0  0  0  0  0  0  0  0  0  0  0  0
  -13.0271   -2.4318  -17.0364 S   0  0  0  0  0  0  0  0  0  0  0  0
  -12.5307   -5.0720  -16.3529 C   0  0  0  0  0  0  0  0  0  0  0  0
  -13.5355   -5.5441  -15.3882 N   0  0  0  0  0  0  0  0  0  0  0  0
  -14.2813   -6.7871  -15.5695 C   0  0  0  0  0  0  0  0  0  0  0  0
  -13.5926   -4.7703  -14.2297 C   0  0  0  0  0  0  0  0  0  0  0  0
  -12.9264   -3.7399  -14.1345 O   0  0  0  0  0  0  0  0  0  0  0  0
  -14.4136   -5.2607  -13.2391 N   0  0  0  0  0  0  0  0  0  0  0  0
  -14.7014   -6.2198  -13.3236 H   0  0  0  0  0  0  0  0  0  0  0  0
  -14.6585   -4.6716  -11.9846 C   0  0  0  0  0  0  0  0  0  0  0  0
  -15.5772   -3.6397  -11.7849 C   0  0  0  0  0  0  0  0  0  0  0  0
  -15.6960   -3.0289  -10.5312 C   0  0  0  0  0  0  0  0  0  0  0  0
  -14.9071   -3.4645   -9.4723 C   0  0  0  0  0  0  0  0  0  0  0  0
  -14.0277   -4.5265   -9.6546 C   0  0  0  0  0  0  0  0  0  0  0  0
  -13.0511   -5.0666   -8.3457 Cl  0  0  0  0  0  0  0  0  0  0  0  0
  -13.9103   -5.1447  -10.9024 C   0  0  0  0  0  0  0  0  0  0  0  0
  -14.6986    6.4269  -18.8381 C   0  0  0  0  0  0  0  0  0  0  0  0
  -14.4907   10.9882  -20.2811 C   0  0  0  0  0  0  0  0  0  0  0  0
  -14.4812    9.6075  -20.7512 N   0  0  0  0  0  0  0  0  0  0  0  0
  -13.3369    8.8682  -20.2042 C   0  0  0  0  0  0  0  0  0  0  0  0
  -13.3470    7.3985  -20.6795 C   0  0  0  0  0  0  0  0  0  0  0  0
  -14.5616    6.6466  -20.2896 N   0  0  0  0  0  0  0  0  0  0  0  0
  -15.7262    7.4094  -20.8043 C   0  0  0  0  0  0  0  0  0  0  0  0
  -15.7431    8.9152  -20.4211 C   0  0  0  0  0  0  0  0  0  0  0  0
 34 35  1  0  0  0
 35 36  1  0  0  0
 35 40  1  0  0  0
 36 37  1  0  0  0
 37 38  1  0  0  0
 38 33  1  0  0  0
 38 39  1  0  0  0
 33  1  1  0  0  0
  1  2  1  0  0  0
  1  6  2  0  0  0
  2  3  2  0  0  0
  3  4  1  0  0  0
  4  5  2  0  0  0
  4 12  1  0  0  0
  5  6  1  0  0  0
  5  7  1  0  0  0
  7  8  2  0  0  0
  7 11  1  0  0  0
  8  9  1  0  0  0
  9 10  1  0  0  0
  9 13  1  0  0  0
 10 14  1  0  0  0
 10 11  2  0  0  0
 14 15  2  0  0  0
 14 18  1  0  0  0
 15 16  1  0  0  0
 16 17  2  0  0  0
 17 19  1  0  0  0
 17 18  1  0  0  0
 19 20  1  0  0  0
 20 21  1  0  0  0
 20 22  1  0  0  0
 22 23  2  0  0  0
 22 24  1  0  0  0
 24 26  1  0  0  0
 24 25  1  0  0  0
 26 27  1  0  0  0
 26 32  2  0  0  0
 27 28  2  0  0  0
 28 29  1  0  0  0
 29 30  2  0  0  0
 30 31  1  0  0  0
 30 32  1  0  0  0
 11 12  1  0  0  0
 39 40  1  0  0  0
M  END
> <minimizedAffinity>
-7.43822

$$$$
