CHEMBL2018752


 30 32  0  0  0  0  0  0  0  0999 V2000
  -28.1124   -2.2086   -9.8823 N   0  0  0  0  0  0  0  0  0  0  0  0
  -28.5623   -3.0923  -10.0953 H   0  0  0  0  0  0  0  0  0  0  0  0
  -28.0362   -2.0253   -8.4773 C   0  0  0  0  0  0  0  0  0  0  0  0
  -27.7893   -0.7976   -7.9997 N   0  0  0  0  0  0  0  0  0  0  0  0
  -27.7923   -0.6495   -6.6759 C   0  0  0  0  0  0  0  0  0  0  0  0
  -28.0285   -1.6120   -5.7841 N   0  0  0  0  0  0  0  0  0  0  0  0
  -28.2641   -2.8370   -6.2732 C   0  0  0  0  0  0  0  0  0  0  0  0
  -28.5260   -3.8725   -5.3936 C   0  0  0  0  0  0  0  0  0  0  0  0
  -28.7677   -5.2205   -5.7737 C   0  0  0  0  0  0  0  0  0  0  0  0
  -28.7318   -5.5298   -7.1309 C   0  0  0  0  0  0  0  0  0  0  0  0
  -28.4928   -4.4630   -8.0313 C   0  0  0  0  0  0  0  0  0  0  0  0
  -28.2625   -3.1240   -7.6285 C   0  0  0  0  0  0  0  0  0  0  0  0
  -28.9654   -5.9172   -4.6252 O   0  0  0  0  0  0  0  0  0  0  0  0
  -30.1800   -6.4744   -4.2043 C   0  0  0  0  0  0  0  0  0  0  0  0
  -28.8423   -6.6537   -7.8820 O   0  0  0  0  0  0  0  0  0  0  0  0
  -29.8469   -7.6292   -7.7973 C   0  0  0  0  0  0  0  0  0  0  0  0
  -25.1180   -1.1893  -12.7097 C   0  0  0  0  0  0  0  0  0  0  0  0
  -24.8574   -1.2247  -11.3369 C   0  0  0  0  0  0  0  0  0  0  0  0
  -25.8512   -1.5688  -10.4209 C   0  0  0  0  0  0  0  0  0  0  0  0
  -27.1483   -1.8548  -10.8471 C   0  0  0  0  0  0  0  0  0  0  0  0
  -27.4009   -1.8638  -12.2257 C   0  0  0  0  0  0  0  0  0  0  0  0
  -26.4093   -1.5072  -13.1458 C   0  0  0  0  0  0  0  0  0  0  0  0
  -26.8195   -1.4910  -14.8274 Cl  0  0  0  0  0  0  0  0  0  0  0  0
  -22.9010   -0.2979  -13.3447 C   0  0  0  0  0  0  0  0  0  0  0  0
  -22.3824   -0.2357  -12.2407 O   0  0  0  0  0  0  0  0  0  0  0  0
  -24.1317   -0.8112  -13.6453 N   0  0  0  0  0  0  0  0  0  0  0  0
  -24.3455   -0.9139  -14.6293 H   0  0  0  0  0  0  0  0  0  0  0  0
  -22.3214    0.1958  -14.4727 O   0  0  0  0  0  0  0  0  0  0  0  0
  -20.0802    0.7447  -15.1394 C   0  0  0  0  0  0  0  0  0  0  0  0
  -21.2282    1.0890  -14.2042 C   0  0  0  0  0  0  0  0  0  0  0  0
 29 30  1  0  0  0
 30 28  1  0  0  0
 28 24  1  0  0  0
 24 25  2  0  0  0
 24 26  1  0  0  0
 26 17  1  0  0  0
 26 27  1  0  0  0
 17 18  1  0  0  0
 17 22  2  0  0  0
 18 19  2  0  0  0
 19 20  1  0  0  0
 20  1  1  0  0  0
 20 21  2  0  0  0
  1  3  1  0  0  0
  1  2  1  0  0  0
  3  4  1  0  0  0
  3 12  2  0  0  0
  4  5  2  0  0  0
  5  6  1  0  0  0
  6  7  2  0  0  0
  7  8  1  0  0  0
  7 12  1  0  0  0
  8  9  2  0  0  0
  9 13  1  0  0  0
  9 10  1  0  0  0
 13 14  1  0  0  0
 10 15  1  0  0  0
 10 11  2  0  0  0
 15 16  1  0  0  0
 11 12  1  0  0  0
 21 22  1  0  0  0
 22 23  1  0  0  0
M  END
> <minimizedAffinity>
-8.82988

$$$$
