CHEMBL3690590


 38 41  0  0  0  0  0  0  0  0999 V2000
  -27.0344   -1.9194  -10.3691 C   0  0  0  0  0  0  0  0  0  0  0  0
  -27.3408   -3.2372   -9.8120 C   0  0  0  0  0  0  0  0  0  0  0  0
  -27.8007   -3.3415   -8.5553 C   0  0  0  0  0  0  0  0  0  0  0  0
  -27.9403   -2.1949   -7.7608 N   0  0  0  0  0  0  0  0  0  0  0  0
  -28.3347   -2.0324   -6.4275 C   0  0  0  0  0  0  0  0  0  0  0  0
  -28.3425   -0.6554   -6.2570 C   0  0  0  0  0  0  0  0  0  0  0  0
  -27.9263    0.0132   -7.3773 N   0  0  0  0  0  0  0  0  0  0  0  0
  -27.6642   -0.9219   -8.2605 C   0  0  0  0  0  0  0  0  0  0  0  0
  -27.2033   -0.8146   -9.6081 C   0  0  0  0  0  0  0  0  0  0  0  0
  -25.4755   -1.2445  -12.2567 C   0  0  0  0  0  0  0  0  0  0  0  0
  -25.4059   -1.1563  -13.6364 C   0  0  0  0  0  0  0  0  0  0  0  0
  -26.4040   -1.4855  -14.4794 N   0  0  0  0  0  0  0  0  0  0  0  0
  -27.5287   -1.9255  -13.9234 C   0  0  0  0  0  0  0  0  0  0  0  0
  -28.5585   -2.2904  -14.7630 N   0  0  0  0  0  0  0  0  0  0  0  0
  -27.7098   -2.0859  -12.6165 N   0  0  0  0  0  0  0  0  0  0  0  0
  -26.6949   -1.7274  -11.7959 C   0  0  0  0  0  0  0  0  0  0  0  0
  -28.1932   -2.5029  -15.6800 H   0  0  0  0  0  0  0  0  0  0  0  0
  -29.1347   -2.9888  -14.3150 H   0  0  0  0  0  0  0  0  0  0  0  0
  -23.1808   -1.9247  -11.5164 C   0  0  0  0  0  0  0  0  0  0  0  0
  -24.3032   -0.8923  -11.3667 C   0  0  0  0  0  0  0  0  0  0  0  0
  -23.7412    0.5161  -11.6125 C   0  0  0  0  0  0  0  0  0  0  0  0
  -28.6063   -3.0940   -5.4401 C   0  0  0  0  0  0  0  0  0  0  0  0
  -28.2741   -2.8978   -4.0938 C   0  0  0  0  0  0  0  0  0  0  0  0
  -28.5017   -3.8856   -3.1459 C   0  0  0  0  0  0  0  0  0  0  0  0
  -29.1429   -5.0625   -3.5100 C   0  0  0  0  0  0  0  0  0  0  0  0
  -29.5791   -5.2682   -4.8195 C   0  0  0  0  0  0  0  0  0  0  0  0
  -29.2753   -4.2912   -5.7902 C   0  0  0  0  0  0  0  0  0  0  0  0
  -30.3270   -6.4192   -5.1907 N   0  0  0  0  0  0  0  0  0  0  0  0
  -29.8364   -7.5210   -5.8620 C   0  0  0  0  0  0  0  0  0  0  0  0
  -28.6920   -7.7055   -6.2514 O   0  0  0  0  0  0  0  0  0  0  0  0
  -30.8061   -8.4672   -6.1232 N   0  0  0  0  0  0  0  0  0  0  0  0
  -31.2936   -6.4476   -4.9052 H   0  0  0  0  0  0  0  0  0  0  0  0
  -31.5485   -8.5557   -5.4449 H   0  0  0  0  0  0  0  0  0  0  0  0
  -30.4005   -9.6947   -6.8289 C   0  0  0  0  0  0  0  0  0  0  0  0
  -30.6911   -9.7427   -8.3381 C   0  0  0  0  0  0  0  0  0  0  0  0
  -31.9650   -9.3881   -8.6231 F   0  0  0  0  0  0  0  0  0  0  0  0
  -29.8875   -8.8617   -8.9877 F   0  0  0  0  0  0  0  0  0  0  0  0
  -30.4601  -10.9594   -8.8725 F   0  0  0  0  0  0  0  0  0  0  0  0
 19 20  1  0  0  0
 20 21  1  0  0  0
 20 10  1  0  0  0
 10 11  1  0  0  0
 10 16  2  0  0  0
 11 12  2  0  0  0
 12 13  1  0  0  0
 13 14  1  0  0  0
 13 15  2  0  0  0
 14 17  1  0  0  0
 14 18  1  0  0  0
 15 16  1  0  0  0
 16  1  1  0  0  0
  1  2  1  0  0  0
  1  9  2  0  0  0
  2  3  2  0  0  0
  3  4  1  0  0  0
  4  5  1  0  0  0
  4  8  1  0  0  0
  5 22  1  0  0  0
  5  6  2  0  0  0
 22 23  1  0  0  0
 22 27  2  0  0  0
 23 24  2  0  0  0
 24 25  1  0  0  0
 25 26  2  0  0  0
 26 28  1  0  0  0
 26 27  1  0  0  0
 28 29  1  0  0  0
 28 32  1  0  0  0
 29 30  2  0  0  0
 29 31  1  0  0  0
 31 34  1  0  0  0
 31 33  1  0  0  0
 34 35  1  0  0  0
 35 36  1  0  0  0
 35 37  1  0  0  0
 35 38  1  0  0  0
  6  7  1  0  0  0
  7  8  2  0  0  0
  8  9  1  0  0  0
M  END
> <minimizedAffinity>
-7.57554

$$$$
