CHEMBL3706819


 37 40  0  0  0  0  0  0  0  0999 V2000
  -29.2039   -6.8478   -4.5828 N   0  0  0  0  0  0  0  0  0  0  0  0
  -29.1450   -6.6927   -3.5670 H   0  0  0  0  0  0  0  0  0  0  0  0
  -29.5572  -10.6920   -7.9061 C   0  0  0  0  0  0  0  0  0  0  0  0
  -28.3408  -10.7993   -7.1827 C   0  0  0  0  0  0  0  0  0  0  0  0
  -27.9303   -9.8876   -6.2104 C   0  0  0  0  0  0  0  0  0  0  0  0
  -26.7502  -10.0343   -5.5897 N   0  0  0  0  0  0  0  0  0  0  0  0
  -26.4218   -9.1053   -4.6806 C   0  0  0  0  0  0  0  0  0  0  0  0
  -27.1654   -8.0543   -4.3234 N   0  0  0  0  0  0  0  0  0  0  0  0
  -28.3523   -7.9248   -4.9416 C   0  0  0  0  0  0  0  0  0  0  0  0
  -28.7820   -8.8255   -5.9286 C   0  0  0  0  0  0  0  0  0  0  0  0
  -29.9898   -8.6970   -6.6443 C   0  0  0  0  0  0  0  0  0  0  0  0
  -30.4076   -9.6193   -7.6170 C   0  0  0  0  0  0  0  0  0  0  0  0
  -31.5768   -9.1773   -8.1572 O   0  0  0  0  0  0  0  0  0  0  0  0
  -32.7239   -8.8709   -7.3930 C   0  0  0  0  0  0  0  0  0  0  0  0
  -29.6520  -11.7007   -8.8357 O   0  0  0  0  0  0  0  0  0  0  0  0
  -28.7300  -11.6814   -9.9058 C   0  0  0  0  0  0  0  0  0  0  0  0
  -29.0125  -10.6271  -10.9659 C   0  0  0  0  0  0  0  0  0  0  0  0
  -26.7064  -10.4280  -10.4139 C   0  0  0  0  0  0  0  0  0  0  0  0
  -27.7239  -10.1354  -11.3512 O   0  0  0  0  0  0  0  0  0  0  0  0
  -29.2121   -5.6349   -5.2493 C   0  0  0  0  0  0  0  0  0  0  0  0
  -29.8462   -5.3806   -6.4040 C   0  0  0  0  0  0  0  0  0  0  0  0
  -29.7846   -4.0696   -7.0782 C   0  0  0  0  0  0  0  0  0  0  0  0
  -30.4013   -3.9001   -8.1264 O   0  0  0  0  0  0  0  0  0  0  0  0
  -28.9514   -2.9946   -6.4559 C   0  0  0  0  0  0  0  0  0  0  0  0
  -28.3533   -3.2406   -5.2799 C   0  0  0  0  0  0  0  0  0  0  0  0
  -28.4708   -4.5308   -4.5845 C   0  0  0  0  0  0  0  0  0  0  0  0
  -27.9429   -4.6994   -3.4866 O   0  0  0  0  0  0  0  0  0  0  0  0
  -28.8673   -1.8137   -7.1693 O   0  0  0  0  0  0  0  0  0  0  0  0
  -27.6163   -1.4266   -7.7370 C   0  0  0  0  0  0  0  0  0  0  0  0
  -27.5716   -1.7068   -9.2390 C   0  0  0  0  0  0  0  0  0  0  0  0
  -26.2148   -1.6418   -9.6747 O   0  0  0  0  0  0  0  0  0  0  0  0
  -26.0029   -1.6146  -11.0262 C   0  0  0  0  0  0  0  0  0  0  0  0
  -24.7696   -1.4332  -11.6623 C   0  0  0  0  0  0  0  0  0  0  0  0
  -24.6902   -1.4480  -13.0536 C   0  0  0  0  0  0  0  0  0  0  0  0
  -25.8344   -1.6364  -13.8239 C   0  0  0  0  0  0  0  0  0  0  0  0
  -27.0694   -1.8071  -13.1959 C   0  0  0  0  0  0  0  0  0  0  0  0
  -27.1503   -1.7936  -11.8038 C   0  0  0  0  0  0  0  0  0  0  0  0
 18 19  1  0  0  0
 19 17  1  0  0  0
 17 16  1  0  0  0
 16 15  1  0  0  0
 15  3  1  0  0  0
  3  4  1  0  0  0
  3 12  2  0  0  0
  4  5  2  0  0  0
  5  6  1  0  0  0
  5 10  1  0  0  0
  6  7  2  0  0  0
  7  8  1  0  0  0
  8  9  2  0  0  0
  9  1  1  0  0  0
  9 10  1  0  0  0
  1 20  1  0  0  0
  1  2  1  0  0  0
 20 21  2  0  0  0
 20 26  1  0  0  0
 21 22  1  0  0  0
 22 23  2  0  0  0
 22 24  1  0  0  0
 24 28  1  0  0  0
 24 25  2  0  0  0
 28 29  1  0  0  0
 29 30  1  0  0  0
 30 31  1  0  0  0
 31 32  1  0  0  0
 32 33  1  0  0  0
 32 37  2  0  0  0
 33 34  2  0  0  0
 34 35  1  0  0  0
 35 36  2  0  0  0
 36 37  1  0  0  0
 25 26  1  0  0  0
 26 27  2  0  0  0
 10 11  2  0  0  0
 11 12  1  0  0  0
 12 13  1  0  0  0
 13 14  1  0  0  0
M  END
> <minimizedAffinity>
-8.04183

$$$$
