CHEMBL3690551


 36 40  0  0  0  0  0  0  0  0999 V2000
  -14.4546   -4.3746  -11.1819 C   0  0  0  0  0  0  0  0  0  0  0  0
  -15.2370   -3.9898  -10.1045 C   0  0  0  0  0  0  0  0  0  0  0  0
  -15.8408   -2.7753  -10.3102 N   0  0  0  0  0  0  0  0  0  0  0  0
  -15.4661   -2.3993  -11.5121 C   0  0  0  0  0  0  0  0  0  0  0  0
  -15.8048   -1.2406  -12.2792 C   0  0  0  0  0  0  0  0  0  0  0  0
  -15.3095   -1.0535  -13.5292 C   0  0  0  0  0  0  0  0  0  0  0  0
  -14.3986   -2.0639  -14.0825 C   0  0  0  0  0  0  0  0  0  0  0  0
  -14.1067   -3.1674  -13.3849 C   0  0  0  0  0  0  0  0  0  0  0  0
  -14.6209   -3.3374  -12.0984 N   0  0  0  0  0  0  0  0  0  0  0  0
  -13.1938   -7.5542  -12.8154 C   0  0  0  0  0  0  0  0  0  0  0  0
  -11.9992   -7.7311  -12.1165 C   0  0  0  0  0  0  0  0  0  0  0  0
  -11.6874   -6.9208  -11.0305 C   0  0  0  0  0  0  0  0  0  0  0  0
  -12.5546   -5.9022  -10.6566 C   0  0  0  0  0  0  0  0  0  0  0  0
  -13.6899   -5.6056  -11.4232 C   0  0  0  0  0  0  0  0  0  0  0  0
  -14.0306   -6.4782  -12.4701 C   0  0  0  0  0  0  0  0  0  0  0  0
  -11.9625   -8.0020  -15.4853 O   0  0  0  0  0  0  0  0  0  0  0  0
  -12.9794   -8.5564  -15.0916 C   0  0  0  0  0  0  0  0  0  0  0  0
  -13.6447   -9.4684  -15.8847 N   0  0  0  0  0  0  0  0  0  0  0  0
  -13.5995   -8.4012  -13.8709 N   0  0  0  0  0  0  0  0  0  0  0  0
  -14.6399   -9.5359  -15.7263 H   0  0  0  0  0  0  0  0  0  0  0  0
  -14.3797   -9.0118  -13.6829 H   0  0  0  0  0  0  0  0  0  0  0  0
  -13.2066   -9.6383  -17.2764 C   0  0  0  0  0  0  0  0  0  0  0  0
  -13.7259  -10.9082  -17.9650 C   0  0  0  0  0  0  0  0  0  0  0  0
  -14.3439  -10.6286  -19.1368 F   0  0  0  0  0  0  0  0  0  0  0  0
  -12.7459  -11.8011  -18.2090 F   0  0  0  0  0  0  0  0  0  0  0  0
  -14.6460  -11.5183  -17.1767 F   0  0  0  0  0  0  0  0  0  0  0  0
  -15.7118    0.1286  -14.3390 C   0  0  0  0  0  0  0  0  0  0  0  0
  -14.7066    0.8641  -14.8546 N   0  0  0  0  0  0  0  0  0  0  0  0
  -15.0582    1.9081  -15.6146 C   0  0  0  0  0  0  0  0  0  0  0  0
  -16.3631    2.2467  -15.8593 C   0  0  0  0  0  0  0  0  0  0  0  0
  -17.3351    1.4564  -15.2720 C   0  0  0  0  0  0  0  0  0  0  0  0
  -17.0232    0.3813  -14.5240 N   0  0  0  0  0  0  0  0  0  0  0  0
  -18.6912    1.8000  -15.4830 N   0  0  0  0  0  0  0  0  0  0  0  0
  -19.8168    1.0255  -15.0449 C   0  0  0  0  0  0  0  0  0  0  0  0
  -20.4017    2.2816  -14.4119 C   0  0  0  0  0  0  0  0  0  0  0  0
  -19.2572    3.0507  -15.0558 C   0  0  0  0  0  0  0  0  0  0  0  0
 16 17  2  0  0  0
 17 18  1  0  0  0
 17 19  1  0  0  0
 18 22  1  0  0  0
 18 20  1  0  0  0
 22 23  1  0  0  0
 23 24  1  0  0  0
 23 25  1  0  0  0
 23 26  1  0  0  0
 19 10  1  0  0  0
 19 21  1  0  0  0
 10 11  1  0  0  0
 10 15  2  0  0  0
 11 12  2  0  0  0
 12 13  1  0  0  0
 13 14  2  0  0  0
 14  1  1  0  0  0
 14 15  1  0  0  0
  1  2  2  0  0  0
  1  9  1  0  0  0
  2  3  1  0  0  0
  3  4  2  0  0  0
  4  5  1  0  0  0
  4  9  1  0  0  0
  5  6  2  0  0  0
  6 27  1  0  0  0
  6  7  1  0  0  0
 27 28  1  0  0  0
 27 32  2  0  0  0
 28 29  2  0  0  0
 29 30  1  0  0  0
 30 31  2  0  0  0
 31 33  1  0  0  0
 31 32  1  0  0  0
 33 34  1  0  0  0
 33 36  1  0  0  0
 34 35  1  0  0  0
 35 36  1  0  0  0
  7  8  2  0  0  0
  8  9  1  0  0  0
M  END
> <minimizedAffinity>
-8.43581

$$$$
