CHEMBL3358992


 28 30  0  0  0  0  0  0  0  0999 V2000
  -28.9482   -3.9486   -4.9100 C   0  0  0  0  0  0  0  0  0  0  0  0
  -28.8748   -4.1895   -3.5877 C   0  0  0  0  0  0  0  0  0  0  0  0
  -29.0615   -5.4523   -3.0989 N   0  0  0  0  0  0  0  0  0  0  0  0
  -29.3409   -6.5171   -3.9206 C   0  0  0  0  0  0  0  0  0  0  0  0
  -29.5532   -7.6384   -3.4900 O   0  0  0  0  0  0  0  0  0  0  0  0
  -29.3941   -6.1611   -5.4191 C   0  0  0  0  0  0  0  0  0  0  0  0
  -29.2285   -4.9334   -5.8357 N   0  0  0  0  0  0  0  0  0  0  0  0
  -29.0117   -5.6428   -2.1063 H   0  0  0  0  0  0  0  0  0  0  0  0
  -27.8861   -1.0753   -7.1846 C   0  0  0  0  0  0  0  0  0  0  0  0
  -28.4158    0.0155   -6.4979 C   0  0  0  0  0  0  0  0  0  0  0  0
  -29.0940   -0.1814   -5.2945 C   0  0  0  0  0  0  0  0  0  0  0  0
  -29.2422   -1.4690   -4.7757 C   0  0  0  0  0  0  0  0  0  0  0  0
  -28.7095   -2.5821   -5.4439 C   0  0  0  0  0  0  0  0  0  0  0  0
  -28.0298   -2.3615   -6.6521 C   0  0  0  0  0  0  0  0  0  0  0  0
  -27.5619   -2.0183   -9.3423 C   0  0  0  0  0  0  0  0  0  0  0  0
  -27.2206   -1.0307   -8.3788 O   0  0  0  0  0  0  0  0  0  0  0  0
  -29.6559   -7.2229   -6.4330 C   0  0  0  0  0  0  0  0  0  0  0  0
  -30.9635   -7.7043   -6.5807 C   0  0  0  0  0  0  0  0  0  0  0  0
  -31.2740   -8.6947   -7.5273 C   0  0  0  0  0  0  0  0  0  0  0  0
  -30.2484   -9.2189   -8.3483 C   0  0  0  0  0  0  0  0  0  0  0  0
  -28.9435   -8.6894   -8.2263 C   0  0  0  0  0  0  0  0  0  0  0  0
  -28.6567   -7.7094   -7.2672 C   0  0  0  0  0  0  0  0  0  0  0  0
  -32.5477   -9.1739   -7.6929 O   0  0  0  0  0  0  0  0  0  0  0  0
  -33.0102  -10.2139   -6.8415 C   0  0  0  0  0  0  0  0  0  0  0  0
  -30.3792  -10.2308   -9.2638 O   0  0  0  0  0  0  0  0  0  0  0  0
  -30.2020  -11.5842   -8.8821 C   0  0  0  0  0  0  0  0  0  0  0  0
  -27.8268   -9.0692   -8.9336 O   0  0  0  0  0  0  0  0  0  0  0  0
  -26.8824   -9.8922   -8.2609 C   0  0  0  0  0  0  0  0  0  0  0  0
 15 16  1  0  0  0
 16  9  1  0  0  0
  9 10  1  0  0  0
  9 14  2  0  0  0
 10 11  2  0  0  0
 11 12  1  0  0  0
 12 13  2  0  0  0
 13  1  1  0  0  0
 13 14  1  0  0  0
  1  2  2  0  0  0
  1  7  1  0  0  0
  2  3  1  0  0  0
  3  4  1  0  0  0
  3  8  1  0  0  0
  4  5  2  0  0  0
  4  6  1  0  0  0
  6 17  1  0  0  0
  6  7  2  0  0  0
 17 18  1  0  0  0
 17 22  2  0  0  0
 18 19  2  0  0  0
 19 23  1  0  0  0
 19 20  1  0  0  0
 23 24  1  0  0  0
 20 25  1  0  0  0
 20 21  2  0  0  0
 25 26  1  0  0  0
 21 27  1  0  0  0
 21 22  1  0  0  0
 27 28  1  0  0  0
M  END
> <minimizedAffinity>
-8.19489

$$$$
