CHEMBL2046840


 34 37  0  0  0  0  0  0  0  0999 V2000
  -17.2046    2.2310  -15.8158 C   0  0  0  0  0  0  0  0  0  0  0  0
  -16.9594    3.6040  -15.8126 C   0  0  0  0  0  0  0  0  0  0  0  0
  -15.6507    4.1074  -15.8414 C   0  0  0  0  0  0  0  0  0  0  0  0
  -14.5396    3.2606  -15.8502 C   0  0  0  0  0  0  0  0  0  0  0  0
  -14.8019    1.8741  -15.8364 C   0  0  0  0  0  0  0  0  0  0  0  0
  -16.1089    1.3666  -15.8222 C   0  0  0  0  0  0  0  0  0  0  0  0
  -13.1577    3.7837  -15.7381 C   0  0  0  0  0  0  0  0  0  0  0  0
  -12.5144    4.3631  -16.8502 C   0  0  0  0  0  0  0  0  0  0  0  0
  -11.2959    5.0591  -16.7323 C   0  0  0  0  0  0  0  0  0  0  0  0
  -10.6987    5.2402  -15.4878 C   0  0  0  0  0  0  0  0  0  0  0  0
  -11.2669    4.5995  -14.4040 C   0  0  0  0  0  0  0  0  0  0  0  0
  -10.7816    4.6442  -13.0732 N   0  0  0  0  0  0  0  0  0  0  0  0
  -11.6343    3.7076  -12.4041 N   0  0  0  0  0  0  0  0  0  0  0  0
  -12.5958    3.1806  -13.2537 C   0  0  0  0  0  0  0  0  0  0  0  0
  -13.3324    2.2460  -13.0034 O   0  0  0  0  0  0  0  0  0  0  0  0
  -12.4409    3.8570  -14.5456 C   0  0  0  0  0  0  0  0  0  0  0  0
  -10.9692    5.5870  -12.7058 H   0  0  0  0  0  0  0  0  0  0  0  0
  -11.1688    3.0332  -11.8010 H   0  0  0  0  0  0  0  0  0  0  0  0
  -19.0384    1.8418  -13.5815 O   0  0  0  0  0  0  0  0  0  0  0  0
  -19.3360    1.5184  -14.7238 C   0  0  0  0  0  0  0  0  0  0  0  0
  -18.4985    1.6581  -15.8216 N   0  0  0  0  0  0  0  0  0  0  0  0
  -20.5696    0.9966  -15.0916 N   0  0  0  0  0  0  0  0  0  0  0  0
  -18.8963    1.4754  -16.7294 H   0  0  0  0  0  0  0  0  0  0  0  0
  -20.6453    0.6176  -16.0228 H   0  0  0  0  0  0  0  0  0  0  0  0
  -21.7159    0.8877  -14.2682 C   0  0  0  0  0  0  0  0  0  0  0  0
  -22.5928    1.9469  -14.0151 C   0  0  0  0  0  0  0  0  0  0  0  0
  -23.7213    1.7715  -13.2129 C   0  0  0  0  0  0  0  0  0  0  0  0
  -23.9979    0.5265  -12.6613 C   0  0  0  0  0  0  0  0  0  0  0  0
  -23.1458   -0.5563  -12.9018 C   0  0  0  0  0  0  0  0  0  0  0  0
  -21.9990   -0.3643  -13.7044 C   0  0  0  0  0  0  0  0  0  0  0  0
  -23.4471   -1.9165  -12.3274 C   0  0  0  0  0  0  0  0  0  0  0  0
  -22.8924   -2.9449  -13.0244 F   0  0  0  0  0  0  0  0  0  0  0  0
  -23.0003   -2.0478  -11.0454 F   0  0  0  0  0  0  0  0  0  0  0  0
  -24.7844   -2.1746  -12.2770 F   0  0  0  0  0  0  0  0  0  0  0  0
 19 20  2  0  0  0
 20 21  1  0  0  0
 20 22  1  0  0  0
 21  1  1  0  0  0
 21 23  1  0  0  0
  1  2  1  0  0  0
  1  6  2  0  0  0
  2  3  2  0  0  0
  3  4  1  0  0  0
  4  7  1  0  0  0
  4  5  2  0  0  0
  7  8  1  0  0  0
  7 16  2  0  0  0
  8  9  2  0  0  0
  9 10  1  0  0  0
 10 11  2  0  0  0
 11 12  1  0  0  0
 11 16  1  0  0  0
 12 13  1  0  0  0
 12 17  1  0  0  0
 13 14  1  0  0  0
 13 18  1  0  0  0
 14 15  2  0  0  0
 14 16  1  0  0  0
  5  6  1  0  0  0
 22 25  1  0  0  0
 22 24  1  0  0  0
 25 26  1  0  0  0
 25 30  2  0  0  0
 26 27  2  0  0  0
 27 28  1  0  0  0
 28 29  2  0  0  0
 29 31  1  0  0  0
 29 30  1  0  0  0
 31 32  1  0  0  0
 31 33  1  0  0  0
 31 34  1  0  0  0
M  END
> <minimizedAffinity>
-9.07186

$$$$
