CHEMBL3676354


 36 38  0  0  0  0  0  0  0  0999 V2000
  -28.5696   -5.1781   -5.7510 C   0  0  0  0  0  0  0  0  0  0  0  0
  -28.3222   -6.4826   -5.3181 C   0  0  0  0  0  0  0  0  0  0  0  0
  -28.6932   -7.5815   -6.1216 C   0  0  0  0  0  0  0  0  0  0  0  0
  -28.5488   -8.9234   -5.7432 C   0  0  0  0  0  0  0  0  0  0  0  0
  -28.8914   -9.9328   -6.5652 N   0  0  0  0  0  0  0  0  0  0  0  0
  -29.4110   -9.6003   -7.7486 C   0  0  0  0  0  0  0  0  0  0  0  0
  -29.6220   -8.3579   -8.1938 N   0  0  0  0  0  0  0  0  0  0  0  0
  -29.2612   -7.3591   -7.3827 C   0  0  0  0  0  0  0  0  0  0  0  0
  -29.4511   -6.0488   -7.8119 C   0  0  0  0  0  0  0  0  0  0  0  0
  -29.0915   -4.9466   -7.0298 C   0  0  0  0  0  0  0  0  0  0  0  0
  -29.2111   -3.9857   -3.7140 C   0  0  0  0  0  0  0  0  0  0  0  0
  -28.8357   -3.3209   -2.7540 O   0  0  0  0  0  0  0  0  0  0  0  0
  -28.4033   -4.1373   -4.8176 N   0  0  0  0  0  0  0  0  0  0  0  0
  -27.4481   -3.9144   -4.5526 H   0  0  0  0  0  0  0  0  0  0  0  0
  -31.6454   -4.0165   -3.5539 C   0  0  0  0  0  0  0  0  0  0  0  0
  -30.5115   -4.7071   -3.7203 C   0  0  0  0  0  0  0  0  0  0  0  0
  -28.0571   -9.2449   -4.4455 N   0  0  0  0  0  0  0  0  0  0  0  0
  -28.8027   -9.7031   -3.9194 H   0  0  0  0  0  0  0  0  0  0  0  0
  -26.8225   -9.9141   -4.2513 C   0  0  0  0  0  0  0  0  0  0  0  0
  -25.6657   -9.4534   -4.8923 C   0  0  0  0  0  0  0  0  0  0  0  0
  -24.4730  -10.1776   -4.8199 C   0  0  0  0  0  0  0  0  0  0  0  0
  -23.1149   -9.5511   -5.6833 Cl  0  0  0  0  0  0  0  0  0  0  0  0
  -24.4262  -11.3660   -4.0833 C   0  0  0  0  0  0  0  0  0  0  0  0
  -22.8794  -12.4659   -4.0218 Br  0  0  0  0  0  0  0  0  0  0  0  0
  -25.5548  -11.7986   -3.3806 C   0  0  0  0  0  0  0  0  0  0  0  0
  -26.7368  -11.0673   -3.4648 C   0  0  0  0  0  0  0  0  0  0  0  0
  -27.8239  -11.5067   -2.8108 F   0  0  0  0  0  0  0  0  0  0  0  0
  -29.3257   -3.7289   -7.6236 O   0  0  0  0  0  0  0  0  0  0  0  0
  -28.3119   -3.2852   -8.5303 C   0  0  0  0  0  0  0  0  0  0  0  0
  -27.8992   -1.8325   -8.2507 C   0  0  0  0  0  0  0  0  0  0  0  0
  -27.6154   -1.6999   -6.8143 N   0  0  0  0  0  0  0  0  0  0  0  0
  -26.6248   -1.9006   -6.6560 H   0  0  0  0  0  0  0  0  0  0  0  0
  -27.8960   -0.3526   -6.3110 C   0  0  0  0  0  0  0  0  0  0  0  0
  -29.2975   -0.3384   -5.7062 C   0  0  0  0  0  0  0  0  0  0  0  0
  -29.9300    0.9996   -5.4142 C   0  0  0  0  0  0  0  0  0  0  0  0
  -29.8899   -1.3859   -5.4375 O   0  0  0  0  0  0  0  0  0  0  0  0
 15 16  2  0  0  0
 16 11  1  0  0  0
 11 12  2  0  0  0
 11 13  1  0  0  0
 13  1  1  0  0  0
 13 14  1  0  0  0
  1  2  1  0  0  0
  1 10  2  0  0  0
  2  3  2  0  0  0
  3  4  1  0  0  0
  3  8  1  0  0  0
  4 17  1  0  0  0
  4  5  2  0  0  0
 17 19  1  0  0  0
 17 18  1  0  0  0
 19 20  1  0  0  0
 19 26  2  0  0  0
 20 21  2  0  0  0
 21 22  1  0  0  0
 21 23  1  0  0  0
 23 24  1  0  0  0
 23 25  2  0  0  0
 25 26  1  0  0  0
 26 27  1  0  0  0
  5  6  1  0  0  0
  6  7  2  0  0  0
  7  8  1  0  0  0
  8  9  2  0  0  0
  9 10  1  0  0  0
 10 28  1  0  0  0
 28 29  1  0  0  0
 29 30  1  0  0  0
 30 31  1  0  0  0
 31 33  1  0  0  0
 31 32  1  0  0  0
 33 34  1  0  0  0
 34 35  1  0  0  0
 34 36  2  0  0  0
M  END
> <minimizedAffinity>
-7.42574

$$$$
