CHEMBL3950335


 31 34  0  0  0  0  0  0  0  0999 V2000
  -28.3293   -2.0867   -7.4719 C   0  0  0  0  0  0  0  0  0  0  0  0
  -27.6872   -1.8074   -6.2580 C   0  0  0  0  0  0  0  0  0  0  0  0
  -27.7439   -2.7166   -5.2003 C   0  0  0  0  0  0  0  0  0  0  0  0
  -28.4261   -3.9240   -5.3565 C   0  0  0  0  0  0  0  0  0  0  0  0
  -29.0931   -4.2071   -6.5541 C   0  0  0  0  0  0  0  0  0  0  0  0
  -29.0814   -3.2652   -7.5990 C   0  0  0  0  0  0  0  0  0  0  0  0
  -27.1101   -0.7848  -10.6542 N   0  0  0  0  0  0  0  0  0  0  0  0
  -27.2464   -1.6735   -9.5942 C   0  0  0  0  0  0  0  0  0  0  0  0
  -26.7219   -2.7846   -9.5359 O   0  0  0  0  0  0  0  0  0  0  0  0
  -28.1258   -1.2292   -8.5996 N   0  0  0  0  0  0  0  0  0  0  0  0
  -27.6984    0.0347  -10.6499 H   0  0  0  0  0  0  0  0  0  0  0  0
  -28.9592   -0.7926   -8.9658 H   0  0  0  0  0  0  0  0  0  0  0  0
  -22.7329   -0.2341  -12.9854 C   0  0  0  0  0  0  0  0  0  0  0  0
  -24.1560   -0.7194  -12.9714 C   0  0  0  0  0  0  0  0  0  0  0  0
  -24.6762   -1.3227  -14.1194 C   0  0  0  0  0  0  0  0  0  0  0  0
  -25.9809   -1.7937  -14.1214 C   0  0  0  0  0  0  0  0  0  0  0  0
  -26.7802   -1.6573  -12.9870 C   0  0  0  0  0  0  0  0  0  0  0  0
  -27.9725   -2.2613  -13.0481 F   0  0  0  0  0  0  0  0  0  0  0  0
  -26.3182   -1.0141  -11.8258 C   0  0  0  0  0  0  0  0  0  0  0  0
  -24.9795   -0.5718  -11.8281 C   0  0  0  0  0  0  0  0  0  0  0  0
  -29.6955   -5.5045   -6.7300 C   0  0  0  0  0  0  0  0  0  0  0  0
  -30.2197   -6.5646   -6.9600 C   0  0  0  0  0  0  0  0  0  0  0  0
  -30.8791   -7.8106   -7.2966 C   0  0  0  0  0  0  0  0  0  0  0  0
  -32.3336   -8.0183   -7.0697 C   0  0  0  0  0  0  0  0  0  0  0  0
  -32.8325   -9.2239   -7.3813 C   0  0  0  0  0  0  0  0  0  0  0  0
  -31.9707  -10.2109   -7.9076 C   0  0  0  0  0  0  0  0  0  0  0  0
  -32.1986  -11.4532   -8.2786 N   0  0  0  0  0  0  0  0  0  0  0  0
  -30.9856  -11.9247   -8.7137 C   0  0  0  0  0  0  0  0  0  0  0  0
  -30.0132  -10.9578   -8.6091 C   0  0  0  0  0  0  0  0  0  0  0  0
  -30.6392   -9.8607   -8.0838 N   0  0  0  0  0  0  0  0  0  0  0  0
  -30.0409   -8.6685   -7.7874 N   0  0  0  0  0  0  0  0  0  0  0  0
 13 14  1  0  0  0
 14 15  1  0  0  0
 14 20  2  0  0  0
 15 16  2  0  0  0
 16 17  1  0  0  0
 17 18  1  0  0  0
 17 19  2  0  0  0
 19  7  1  0  0  0
 19 20  1  0  0  0
  7  8  1  0  0  0
  7 11  1  0  0  0
  8  9  2  0  0  0
  8 10  1  0  0  0
 10  1  1  0  0  0
 10 12  1  0  0  0
  1  2  1  0  0  0
  1  6  2  0  0  0
  2  3  2  0  0  0
  3  4  1  0  0  0
  4  5  2  0  0  0
  5 21  1  0  0  0
  5  6  1  0  0  0
 21 22  3  0  0  0
 22 23  1  0  0  0
 23 24  1  0  0  0
 23 31  2  0  0  0
 24 25  2  0  0  0
 25 26  1  0  0  0
 26 27  2  0  0  0
 26 30  1  0  0  0
 27 28  1  0  0  0
 28 29  2  0  0  0
 29 30  1  0  0  0
 30 31  1  0  0  0
M  END
> <minimizedAffinity>
-10.14689

$$$$
