CHEMBL3628798


 30 33  0  0  0  0  0  0  0  0999 V2000
  -27.8917   -2.1811   -8.3512 C   0  0  0  0  0  0  0  0  0  0  0  0
  -28.5467   -3.3480   -8.7526 C   0  0  0  0  0  0  0  0  0  0  0  0
  -29.3127   -4.0935   -7.8471 C   0  0  0  0  0  0  0  0  0  0  0  0
  -29.4073   -3.7066   -6.5106 C   0  0  0  0  0  0  0  0  0  0  0  0
  -28.7312   -2.5449   -6.1122 C   0  0  0  0  0  0  0  0  0  0  0  0
  -27.9659   -1.7996   -7.0126 C   0  0  0  0  0  0  0  0  0  0  0  0
  -26.3112   -2.9028  -10.6747 O   0  0  0  0  0  0  0  0  0  0  0  0
  -26.4673   -1.7344  -10.3416 C   0  0  0  0  0  0  0  0  0  0  0  0
  -27.1835   -1.3282   -9.2278 N   0  0  0  0  0  0  0  0  0  0  0  0
  -25.9831   -0.6461  -11.0523 N   0  0  0  0  0  0  0  0  0  0  0  0
  -27.3912   -0.3463   -9.1541 H   0  0  0  0  0  0  0  0  0  0  0  0
  -26.0393    0.2528  -10.6034 H   0  0  0  0  0  0  0  0  0  0  0  0
  -25.3485   -0.6859  -12.3144 C   0  0  0  0  0  0  0  0  0  0  0  0
  -25.8802   -1.3393  -13.4302 C   0  0  0  0  0  0  0  0  0  0  0  0
  -25.2095   -1.3322  -14.6582 C   0  0  0  0  0  0  0  0  0  0  0  0
  -24.0009   -0.6604  -14.7840 C   0  0  0  0  0  0  0  0  0  0  0  0
  -23.4681    0.0017  -13.6823 C   0  0  0  0  0  0  0  0  0  0  0  0
  -21.8306    0.9326  -13.8560 Br  0  0  0  0  0  0  0  0  0  0  0  0
  -24.1314   -0.0076  -12.4506 C   0  0  0  0  0  0  0  0  0  0  0  0
  -30.2357   -4.4142   -5.6167 N   0  0  0  0  0  0  0  0  0  0  0  0
  -31.2241   -4.3452   -5.8298 H   0  0  0  0  0  0  0  0  0  0  0  0
  -29.9368   -5.6677   -5.0499 C   0  0  0  0  0  0  0  0  0  0  0  0
  -29.6332   -5.7522   -3.7321 N   0  0  0  0  0  0  0  0  0  0  0  0
  -29.3604   -6.9460   -3.1971 C   0  0  0  0  0  0  0  0  0  0  0  0
  -29.3549   -8.1258   -3.8148 N   0  0  0  0  0  0  0  0  0  0  0  0
  -29.6612   -8.0206   -5.1180 C   0  0  0  0  0  0  0  0  0  0  0  0
  -29.7386   -9.4091   -6.1038 S   0  0  0  0  0  0  0  0  0  0  0  0
  -30.1715   -8.4858   -7.4756 C   0  0  0  0  0  0  0  0  0  0  0  0
  -30.2531   -7.1412   -7.1855 C   0  0  0  0  0  0  0  0  0  0  0  0
  -29.9495   -6.8529   -5.8097 C   0  0  0  0  0  0  0  0  0  0  0  0
  7  8  2  0  0  0
  8  9  1  0  0  0
  8 10  1  0  0  0
  9  1  1  0  0  0
  9 11  1  0  0  0
  1  2  1  0  0  0
  1  6  2  0  0  0
  2  3  2  0  0  0
  3  4  1  0  0  0
  4 20  1  0  0  0
  4  5  2  0  0  0
 20 22  1  0  0  0
 20 21  1  0  0  0
 22 23  1  0  0  0
 22 30  2  0  0  0
 23 24  2  0  0  0
 24 25  1  0  0  0
 25 26  2  0  0  0
 26 27  1  0  0  0
 26 30  1  0  0  0
 27 28  1  0  0  0
 28 29  2  0  0  0
 29 30  1  0  0  0
  5  6  1  0  0  0
 10 13  1  0  0  0
 10 12  1  0  0  0
 13 14  1  0  0  0
 13 19  2  0  0  0
 14 15  2  0  0  0
 15 16  1  0  0  0
 16 17  2  0  0  0
 17 18  1  0  0  0
 17 19  1  0  0  0
M  END
> <minimizedAffinity>
-7.94503

$$$$
