CHEMBL470076


 32 35  0  0  0  0  0  0  0  0999 V2000
  -25.4853   -1.0037  -12.5079 C   0  0  0  0  0  0  0  0  0  0  0  0
  -25.0414   -1.3028  -13.8031 C   0  0  0  0  0  0  0  0  0  0  0  0
  -23.9063   -0.6830  -14.3398 C   0  0  0  0  0  0  0  0  0  0  0  0
  -23.1882    0.2458  -13.5830 C   0  0  0  0  0  0  0  0  0  0  0  0
  -23.6586    0.5812  -12.3046 C   0  0  0  0  0  0  0  0  0  0  0  0
  -24.8088   -0.0311  -11.7717 C   0  0  0  0  0  0  0  0  0  0  0  0
  -21.9377    0.8253  -14.1046 C   0  0  0  0  0  0  0  0  0  0  0  0
  -20.8076   -0.0699  -14.5251 C   0  0  0  0  0  0  0  0  0  0  0  0
  -19.6480    0.2951  -14.9807 N   0  0  0  0  0  0  0  0  0  0  0  0
  -19.4481    1.6427  -15.0871 C   0  0  0  0  0  0  0  0  0  0  0  0
  -18.3898    2.3967  -15.5263 C   0  0  0  0  0  0  0  0  0  0  0  0
  -16.7485    1.8131  -16.2046 Br  0  0  0  0  0  0  0  0  0  0  0  0
  -18.7615    3.7329  -15.3660 C   0  0  0  0  0  0  0  0  0  0  0  0
  -19.9905    3.8595  -14.8602 N   0  0  0  0  0  0  0  0  0  0  0  0
  -20.4358    2.5686  -14.7243 N   0  0  0  0  0  0  0  0  0  0  0  0
  -21.7080    2.1498  -14.2398 C   0  0  0  0  0  0  0  0  0  0  0  0
  -22.6217    3.1562  -13.9174 N   0  0  0  0  0  0  0  0  0  0  0  0
  -22.1547    4.0506  -13.7528 H   0  0  0  0  0  0  0  0  0  0  0  0
  -23.2848    2.8983  -13.1925 H   0  0  0  0  0  0  0  0  0  0  0  0
  -27.8066   -2.4441  -10.0879 N   0  0  0  0  0  0  0  0  0  0  0  0
  -26.6855   -1.7544  -10.5430 C   0  0  0  0  0  0  0  0  0  0  0  0
  -25.8588   -1.2116   -9.8339 O   0  0  0  0  0  0  0  0  0  0  0  0
  -26.5825   -1.7145  -11.9378 N   0  0  0  0  0  0  0  0  0  0  0  0
  -28.3931   -2.9027  -10.7625 H   0  0  0  0  0  0  0  0  0  0  0  0
  -27.4623   -1.6692  -12.4333 H   0  0  0  0  0  0  0  0  0  0  0  0
  -29.1663   -3.1532   -4.5248 C   0  0  0  0  0  0  0  0  0  0  0  0
  -28.7938   -2.9518   -5.9627 C   0  0  0  0  0  0  0  0  0  0  0  0
  -29.0549   -3.9614   -6.8806 C   0  0  0  0  0  0  0  0  0  0  0  0
  -28.7300   -3.7966   -8.2261 C   0  0  0  0  0  0  0  0  0  0  0  0
  -28.1356   -2.6252   -8.7102 C   0  0  0  0  0  0  0  0  0  0  0  0
  -27.8681   -1.6082   -7.7849 C   0  0  0  0  0  0  0  0  0  0  0  0
  -28.1951   -1.7719   -6.4225 C   0  0  0  0  0  0  0  0  0  0  0  0
 26 27  1  0  0  0
 27 28  1  0  0  0
 27 32  2  0  0  0
 28 29  2  0  0  0
 29 30  1  0  0  0
 30 20  1  0  0  0
 30 31  2  0  0  0
 20 21  1  0  0  0
 20 24  1  0  0  0
 21 22  2  0  0  0
 21 23  1  0  0  0
 23  1  1  0  0  0
 23 25  1  0  0  0
  1  2  1  0  0  0
  1  6  2  0  0  0
  2  3  2  0  0  0
  3  4  1  0  0  0
  4  7  1  0  0  0
  4  5  2  0  0  0
  7  8  1  0  0  0
  7 16  2  0  0  0
  8  9  2  0  0  0
  9 10  1  0  0  0
 10 11  2  0  0  0
 10 15  1  0  0  0
 11 12  1  0  0  0
 11 13  1  0  0  0
 13 14  2  0  0  0
 14 15  1  0  0  0
 15 16  1  0  0  0
 16 17  1  0  0  0
 17 18  1  0  0  0
 17 19  1  0  0  0
  5  6  1  0  0  0
 31 32  1  0  0  0
M  END
> <minimizedAffinity>
-10.90223

$$$$
