CHEMBL517956


 31 33  0  0  0  0  0  0  0  0999 V2000
  -12.7425   -0.9028  -14.8567 C   0  0  0  0  0  0  0  0  0  0  0  0
  -13.7446   -0.0319  -15.6192 C   0  0  0  0  0  0  0  0  0  0  0  0
  -13.7656   -0.0270  -17.1417 C   0  0  0  0  0  0  0  0  0  0  0  0
  -14.9237    0.9376  -17.4417 C   0  0  0  0  0  0  0  0  0  0  0  0
  -15.5296    1.2916  -16.0355 C   0  0  0  0  0  0  0  0  0  0  0  0
  -14.2103    1.3913  -15.1896 C   0  0  0  0  0  0  0  0  0  0  0  0
  -13.4026    2.6231  -15.6956 C   0  0  0  0  0  0  0  0  0  0  0  0
  -14.1672    1.3849  -13.6617 C   0  0  0  0  0  0  0  0  0  0  0  0
  -12.7000    1.1689  -13.2173 C   0  0  0  0  0  0  0  0  0  0  0  0
  -12.1033   -0.1831  -13.6385 C   0  0  0  0  0  0  0  0  0  0  0  0
  -12.0509   -1.0225  -12.4841 O   0  0  0  0  0  0  0  0  0  0  0  0
  -12.9154   -0.9737  -12.0399 H   0  0  0  0  0  0  0  0  0  0  0  0
  -16.6436    2.3411  -16.0593 C   0  0  0  0  0  0  0  0  0  0  0  0
  -16.0529    3.7584  -15.9990 C   0  0  0  0  0  0  0  0  0  0  0  0
  -17.5303    2.0401  -14.8136 C   0  0  0  0  0  0  0  0  0  0  0  0
  -18.2225    0.6966  -14.8227 C   0  0  0  0  0  0  0  0  0  0  0  0
  -19.6763    0.8484  -15.2832 C   0  0  0  0  0  0  0  0  0  0  0  0
  -20.5198    1.5921  -14.2482 C   0  0  0  0  0  0  0  0  0  0  0  0
  -20.9874    2.9401  -14.7949 C   0  0  0  0  0  0  0  0  0  0  0  0
  -21.7280    0.7631  -13.8008 C   0  0  0  0  0  0  0  0  0  0  0  0
  -13.4667   -2.2514  -14.4430 C   0  0  0  0  0  0  0  0  0  0  0  0
  -14.8808   -2.0910  -13.8136 C   0  0  0  0  0  0  0  0  0  0  0  0
  -15.3387   -2.6909  -10.8840 C   0  0  0  0  0  0  0  0  0  0  0  0
  -15.8733   -3.5607  -11.9809 C   0  0  0  0  0  0  0  0  0  0  0  0
  -16.7213   -4.6288  -11.6758 C   0  0  0  0  0  0  0  0  0  0  0  0
  -16.8629   -5.6864  -12.5694 C   0  0  0  0  0  0  0  0  0  0  0  0
  -16.1411   -5.6665  -13.7450 C   0  0  0  0  0  0  0  0  0  0  0  0
  -15.9935   -6.8236  -14.4641 O   0  0  0  0  0  0  0  0  0  0  0  0
  -15.4854   -4.5187  -14.1639 C   0  0  0  0  0  0  0  0  0  0  0  0
  -15.4072   -3.4082  -13.3095 C   0  0  0  0  0  0  0  0  0  0  0  0
  -15.2818   -7.2904  -14.0303 H   0  0  0  0  0  0  0  0  0  0  0  0
 23 24  1  0  0  0
 24 25  1  0  0  0
 24 30  2  0  0  0
 25 26  2  0  0  0
 26 27  1  0  0  0
 27 28  1  0  0  0
 27 29  2  0  0  0
 28 31  1  0  0  0
 29 30  1  0  0  0
 30 22  1  0  0  0
 22 21  1  0  0  0
  1  2  1  0  0  0
  1 10  1  0  0  0
  1 21  1  0  0  0
  2  3  1  0  0  0
  2  6  1  0  0  0
  3  4  1  0  0  0
  4  5  1  0  0  0
  5  6  1  0  0  0
  5 13  1  0  0  0
 13 14  1  0  0  0
 13 15  1  0  0  0
 15 16  1  0  0  0
 16 17  1  0  0  0
 17 18  1  0  0  0
 18 19  1  0  0  0
 18 20  1  0  0  0
  6  8  1  0  0  0
  6  7  1  0  0  0
  8  9  1  0  0  0
  9 10  1  0  0  0
 10 11  1  0  0  0
 11 12  1  0  0  0
M  END
> <minimizedAffinity>
-8.69203

$$$$
