CHEMBL3905688


 40 43  0  0  0  0  0  0  0  0999 V2000
  -25.5798   -1.9333  -12.2804 C   0  0  0  0  0  0  0  0  0  0  0  0
  -24.3201   -1.8879  -11.6759 C   0  0  0  0  0  0  0  0  0  0  0  0
  -23.2178   -1.4018  -12.3877 C   0  0  0  0  0  0  0  0  0  0  0  0
  -23.3708   -0.9485  -13.7011 C   0  0  0  0  0  0  0  0  0  0  0  0
  -24.6089   -1.0794  -14.3358 C   0  0  0  0  0  0  0  0  0  0  0  0
  -25.7016   -1.5582  -13.6184 C   0  0  0  0  0  0  0  0  0  0  0  0
  -26.9090   -1.5792  -14.2046 F   0  0  0  0  0  0  0  0  0  0  0  0
  -28.0146   -2.5313   -9.6609 N   0  0  0  0  0  0  0  0  0  0  0  0
  -26.8274   -2.0632  -10.1997 C   0  0  0  0  0  0  0  0  0  0  0  0
  -25.9621   -1.4384   -9.6036 O   0  0  0  0  0  0  0  0  0  0  0  0
  -26.7450   -2.3168  -11.5656 N   0  0  0  0  0  0  0  0  0  0  0  0
  -28.6892   -2.9040  -10.3119 H   0  0  0  0  0  0  0  0  0  0  0  0
  -27.6097   -2.1561  -12.0658 H   0  0  0  0  0  0  0  0  0  0  0  0
  -28.0019    0.2795   -5.5923 C   0  0  0  0  0  0  0  0  0  0  0  0
  -28.3963   -0.9886   -6.2922 C   0  0  0  0  0  0  0  0  0  0  0  0
  -29.0851   -1.9846   -5.5935 C   0  0  0  0  0  0  0  0  0  0  0  0
  -29.4821   -3.1452   -6.2475 C   0  0  0  0  0  0  0  0  0  0  0  0
  -29.1801   -3.3283   -7.5942 C   0  0  0  0  0  0  0  0  0  0  0  0
  -29.7143   -4.4091   -8.1731 F   0  0  0  0  0  0  0  0  0  0  0  0
  -28.4357   -2.3801   -8.3124 C   0  0  0  0  0  0  0  0  0  0  0  0
  -28.0768   -1.1921   -7.6505 C   0  0  0  0  0  0  0  0  0  0  0  0
  -22.2433   -0.4245  -14.2969 O   0  0  0  0  0  0  0  0  0  0  0  0
  -22.0243    0.9379  -14.2611 C   0  0  0  0  0  0  0  0  0  0  0  0
  -22.9470    1.8556  -13.7555 C   0  0  0  0  0  0  0  0  0  0  0  0
  -22.6584    3.2044  -13.8215 C   0  0  0  0  0  0  0  0  0  0  0  0
  -21.5117    3.7277  -14.2846 N   0  0  0  0  0  0  0  0  0  0  0  0
  -20.5666    2.8300  -14.6688 C   0  0  0  0  0  0  0  0  0  0  0  0
  -19.2576    3.1724  -15.1045 C   0  0  0  0  0  0  0  0  0  0  0  0
  -18.4751    2.0692  -15.3815 C   0  0  0  0  0  0  0  0  0  0  0  0
  -19.3697    0.6207  -15.2021 S   0  0  0  0  0  0  0  0  0  0  0  0
  -20.7798    1.4521  -14.6685 C   0  0  0  0  0  0  0  0  0  0  0  0
  -17.0757    2.0872  -15.7822 C   0  0  0  0  0  0  0  0  0  0  0  0
  -16.5574    3.0557  -16.3355 O   0  0  0  0  0  0  0  0  0  0  0  0
  -16.3572    0.9373  -15.5225 N   0  0  0  0  0  0  0  0  0  0  0  0
  -16.8461    0.1565  -15.0997 H   0  0  0  0  0  0  0  0  0  0  0  0
  -14.9788    0.7683  -15.9341 C   0  0  0  0  0  0  0  0  0  0  0  0
  -14.1121    0.1511  -14.8448 C   0  0  0  0  0  0  0  0  0  0  0  0
  -14.0142    1.0031  -13.5854 C   0  0  0  0  0  0  0  0  0  0  0  0
  -14.9994    0.5777  -12.6495 O   0  0  0  0  0  0  0  0  0  0  0  0
  -15.8650    0.8532  -12.9952 H   0  0  0  0  0  0  0  0  0  0  0  0
 14 15  1  0  0  0
 15 16  1  0  0  0
 15 21  2  0  0  0
 16 17  2  0  0  0
 17 18  1  0  0  0
 18 19  1  0  0  0
 18 20  2  0  0  0
 20  8  1  0  0  0
 20 21  1  0  0  0
  8  9  1  0  0  0
  8 12  1  0  0  0
  9 10  2  0  0  0
  9 11  1  0  0  0
 11  1  1  0  0  0
 11 13  1  0  0  0
  1  2  1  0  0  0
  1  6  2  0  0  0
  2  3  2  0  0  0
  3  4  1  0  0  0
  4 22  1  0  0  0
  4  5  2  0  0  0
 22 23  1  0  0  0
 23 24  1  0  0  0
 23 31  2  0  0  0
 24 25  2  0  0  0
 25 26  1  0  0  0
 26 27  2  0  0  0
 27 28  1  0  0  0
 27 31  1  0  0  0
 28 29  2  0  0  0
 29 32  1  0  0  0
 29 30  1  0  0  0
 32 33  2  0  0  0
 32 34  1  0  0  0
 34 36  1  0  0  0
 34 35  1  0  0  0
 36 37  1  0  0  0
 37 38  1  0  0  0
 38 39  1  0  0  0
 39 40  1  0  0  0
 30 31  1  0  0  0
  5  6  1  0  0  0
  6  7  1  0  0  0
M  END
> <minimizedAffinity>
-11.37860

$$$$
