CHEMBL2303627


 34 34  0  0  0  0  0  0  0  0999 V2000
  -29.0219   -2.8300   -6.3892 C   0  0  0  0  0  0  0  0  0  0  0  0
  -28.6338   -2.9983   -7.8828 C   0  0  0  0  0  0  0  0  0  0  0  0
  -28.1862   -4.4261   -8.2018 C   0  0  0  0  0  0  0  0  0  0  0  0
  -27.6568   -1.9060   -8.3356 C   0  0  0  0  0  0  0  0  0  0  0  0
  -26.3299   -1.5682  -10.3754 C   0  0  0  0  0  0  0  0  0  0  0  0
  -27.5361   -1.7771   -9.8218 C   0  0  0  0  0  0  0  0  0  0  0  0
  -23.5649   -1.6465  -11.6345 C   0  0  0  0  0  0  0  0  0  0  0  0
  -24.8741   -1.4154  -12.3529 C   0  0  0  0  0  0  0  0  0  0  0  0
  -26.0927   -1.4011  -11.7822 C   0  0  0  0  0  0  0  0  0  0  0  0
  -24.7039   -1.2694  -13.8252 C   0  0  0  0  0  0  0  0  0  0  0  0
  -25.4909   -1.7418  -14.6273 O   0  0  0  0  0  0  0  0  0  0  0  0
  -23.5952   -0.6148  -14.2179 O   0  0  0  0  0  0  0  0  0  0  0  0
  -22.9444   -0.4444  -13.5178 H   0  0  0  0  0  0  0  0  0  0  0  0
  -29.3880   -1.4139   -5.9100 C   0  0  0  0  0  0  0  0  0  0  0  0
  -28.3658   -0.6617   -5.0958 C   0  0  0  0  0  0  0  0  0  0  0  0
  -27.3443   -1.1717   -4.6608 O   0  0  0  0  0  0  0  0  0  0  0  0
  -28.7099    0.6121   -4.8170 O   0  0  0  0  0  0  0  0  0  0  0  0
  -29.5635    0.8614   -5.2385 H   0  0  0  0  0  0  0  0  0  0  0  0
  -30.0880   -3.7447   -6.0088 O   0  0  0  0  0  0  0  0  0  0  0  0
  -29.9537   -4.1838   -4.6459 C   0  0  0  0  0  0  0  0  0  0  0  0
  -30.9159   -5.1962   -4.3223 O   0  0  0  0  0  0  0  0  0  0  0  0
  -30.6597   -6.5080   -4.8502 C   0  0  0  0  0  0  0  0  0  0  0  0
  -29.3126   -6.9817   -4.2989 C   0  0  0  0  0  0  0  0  0  0  0  0
  -29.3610   -6.9833   -2.8527 O   0  0  0  0  0  0  0  0  0  0  0  0
  -28.1985   -6.0203   -4.7364 C   0  0  0  0  0  0  0  0  0  0  0  0
  -26.9518   -6.4623   -4.1920 O   0  0  0  0  0  0  0  0  0  0  0  0
  -28.5021   -4.5842   -4.2887 C   0  0  0  0  0  0  0  0  0  0  0  0
  -28.3073   -4.4576   -2.8627 O   0  0  0  0  0  0  0  0  0  0  0  0
  -30.2831   -6.8123   -2.5791 H   0  0  0  0  0  0  0  0  0  0  0  0
  -27.0673   -6.4410   -3.2204 H   0  0  0  0  0  0  0  0  0  0  0  0
  -28.8948   -5.1080   -2.4300 H   0  0  0  0  0  0  0  0  0  0  0  0
  -30.7583   -6.6389   -6.3817 C   0  0  0  0  0  0  0  0  0  0  0  0
  -30.3569   -7.9364   -6.8223 O   0  0  0  0  0  0  0  0  0  0  0  0
  -29.3924   -8.0156   -6.7112 H   0  0  0  0  0  0  0  0  0  0  0  0
  7  8  1  0  0  0
  8  9  2  0  0  0
  8 10  1  0  0  0
  9  5  1  0  0  0
  5  6  2  0  0  0
  6  4  1  0  0  0
  4  2  1  0  0  0
  2  3  1  0  0  0
  2  1  1  0  0  0
  1 14  1  0  0  0
  1 19  1  0  0  0
 14 15  1  0  0  0
 15 16  2  0  0  0
 15 17  1  0  0  0
 17 18  1  0  0  0
 19 20  1  0  0  0
 20 21  1  0  0  0
 20 27  1  0  0  0
 21 22  1  0  0  0
 22 32  1  0  0  0
 22 23  1  0  0  0
 32 33  1  0  0  0
 33 34  1  0  0  0
 23 24  1  0  0  0
 23 25  1  0  0  0
 24 29  1  0  0  0
 25 26  1  0  0  0
 25 27  1  0  0  0
 26 30  1  0  0  0
 27 28  1  0  0  0
 28 31  1  0  0  0
 10 11  2  0  0  0
 10 12  1  0  0  0
 12 13  1  0  0  0
M  END
> <minimizedAffinity>
-8.28278

$$$$
