CHEMBL241314


 30 32  0  0  0  0  0  0  0  0999 V2000
  -30.5848   -5.1450   -7.2646 N   0  0  0  0  0  0  0  0  0  0  0  0
  -30.4469   -6.4790   -6.9121 C   0  0  0  0  0  0  0  0  0  0  0  0
  -30.9372   -7.3057   -7.6859 O   0  0  0  0  0  0  0  0  0  0  0  0
  -31.3328   -4.9823   -7.9281 H   0  0  0  0  0  0  0  0  0  0  0  0
  -27.4377   -1.6102   -8.3516 C   0  0  0  0  0  0  0  0  0  0  0  0
  -28.3204   -2.2433   -7.3071 C   0  0  0  0  0  0  0  0  0  0  0  0
  -28.8265   -3.5360   -7.5519 C   0  0  0  0  0  0  0  0  0  0  0  0
  -29.8800   -4.0362   -6.7789 C   0  0  0  0  0  0  0  0  0  0  0  0
  -30.2941   -3.3570   -5.6381 C   0  0  0  0  0  0  0  0  0  0  0  0
  -29.7143   -2.1301   -5.3189 C   0  0  0  0  0  0  0  0  0  0  0  0
  -28.7561   -1.5325   -6.1647 C   0  0  0  0  0  0  0  0  0  0  0  0
  -28.3148   -0.1235   -5.8130 C   0  0  0  0  0  0  0  0  0  0  0  0
  -28.3972    0.7811   -6.8250 F   0  0  0  0  0  0  0  0  0  0  0  0
  -29.0555    0.4007   -4.7950 F   0  0  0  0  0  0  0  0  0  0  0  0
  -27.0214   -0.0828   -5.3875 F   0  0  0  0  0  0  0  0  0  0  0  0
  -29.8247   -6.8760   -5.6568 C   0  0  0  0  0  0  0  0  0  0  0  0
  -28.7045   -7.6769   -5.4725 C   0  0  0  0  0  0  0  0  0  0  0  0
  -28.5317   -7.7894   -4.0821 C   0  0  0  0  0  0  0  0  0  0  0  0
  -29.4540   -7.1290   -3.4034 N   0  0  0  0  0  0  0  0  0  0  0  0
  -30.2689   -6.6486   -4.3642 N   0  0  0  0  0  0  0  0  0  0  0  0
  -31.4729   -6.0134   -3.8884 C   0  0  0  0  0  0  0  0  0  0  0  0
  -27.9382   -8.2436   -6.4404 N   0  0  0  0  0  0  0  0  0  0  0  0
  -27.0852   -7.7893   -6.7479 H   0  0  0  0  0  0  0  0  0  0  0  0
  -28.0779   -9.6474   -6.8153 C   0  0  0  0  0  0  0  0  0  0  0  0
  -28.0389   -9.8687   -8.3083 C   0  0  0  0  0  0  0  0  0  0  0  0
  -26.8540  -10.1860   -8.9797 C   0  0  0  0  0  0  0  0  0  0  0  0
  -26.8965  -10.4059  -10.3490 C   0  0  0  0  0  0  0  0  0  0  0  0
  -28.0248  -10.3468  -11.0872 N   0  0  0  0  0  0  0  0  0  0  0  0
  -29.1618  -10.0478  -10.4257 C   0  0  0  0  0  0  0  0  0  0  0  0
  -29.2193   -9.8101   -9.0600 C   0  0  0  0  0  0  0  0  0  0  0  0
  5  6  1  0  0  0
  6  7  1  0  0  0
  6 11  2  0  0  0
  7  8  2  0  0  0
  8  1  1  0  0  0
  8  9  1  0  0  0
  1  2  1  0  0  0
  1  4  1  0  0  0
  2  3  2  0  0  0
  2 16  1  0  0  0
 16 17  2  0  0  0
 16 20  1  0  0  0
 17 22  1  0  0  0
 17 18  1  0  0  0
 22 24  1  0  0  0
 22 23  1  0  0  0
 24 25  1  0  0  0
 25 26  1  0  0  0
 25 30  2  0  0  0
 26 27  2  0  0  0
 27 28  1  0  0  0
 28 29  2  0  0  0
 29 30  1  0  0  0
 18 19  2  0  0  0
 19 20  1  0  0  0
 20 21  1  0  0  0
  9 10  2  0  0  0
 10 11  1  0  0  0
 11 12  1  0  0  0
 12 13  1  0  0  0
 12 14  1  0  0  0
 12 15  1  0  0  0
M  END
> <minimizedAffinity>
-8.32398

$$$$
