CHEMBL3125888


 40 44  0  0  0  0  0  0  0  0999 V2000
  -11.5914   -2.3111  -16.8730 C   0  0  0  0  0  0  0  0  0  0  0  0
  -11.0729   -2.4447  -18.1638 C   0  0  0  0  0  0  0  0  0  0  0  0
  -11.0686   -3.6854  -18.7866 C   0  0  0  0  0  0  0  0  0  0  0  0
  -11.5069   -4.8110  -18.0941 C   0  0  0  0  0  0  0  0  0  0  0  0
  -11.9448   -4.7198  -16.7683 C   0  0  0  0  0  0  0  0  0  0  0  0
  -12.0156   -3.4523  -16.1693 C   0  0  0  0  0  0  0  0  0  0  0  0
  -12.3287   -5.8684  -16.0304 N   0  0  0  0  0  0  0  0  0  0  0  0
  -13.4830   -6.6105  -16.2490 C   0  0  0  0  0  0  0  0  0  0  0  0
  -14.3062   -6.4256  -17.1491 O   0  0  0  0  0  0  0  0  0  0  0  0
  -11.6403   -6.2530  -15.3936 H   0  0  0  0  0  0  0  0  0  0  0  0
  -13.6831   -7.7593  -15.2774 C   0  0  0  0  0  0  0  0  0  0  0  0
  -13.9740   -7.3097  -13.8668 C   0  0  0  0  0  0  0  0  0  0  0  0
  -13.1616   -7.7527  -12.8163 C   0  0  0  0  0  0  0  0  0  0  0  0
  -13.3738   -7.2970  -11.5165 C   0  0  0  0  0  0  0  0  0  0  0  0
  -14.4077   -6.4022  -11.2456 C   0  0  0  0  0  0  0  0  0  0  0  0
  -15.2530   -5.9581  -12.2723 C   0  0  0  0  0  0  0  0  0  0  0  0
  -15.0193   -6.4114  -13.5833 C   0  0  0  0  0  0  0  0  0  0  0  0
  -16.3961   -5.0161  -11.9768 C   0  0  0  0  0  0  0  0  0  0  0  0
  -16.7057   -4.1954  -13.0210 F   0  0  0  0  0  0  0  0  0  0  0  0
  -17.5515   -5.6690  -11.6668 F   0  0  0  0  0  0  0  0  0  0  0  0
  -16.1369   -4.1905  -10.9250 F   0  0  0  0  0  0  0  0  0  0  0  0
  -11.6647   -1.0978  -16.2107 O   0  0  0  0  0  0  0  0  0  0  0  0
  -13.6312   -0.2627  -15.1188 C   0  0  0  0  0  0  0  0  0  0  0  0
  -12.8405   -0.3642  -16.2749 C   0  0  0  0  0  0  0  0  0  0  0  0
  -13.2698    0.2182  -17.4711 C   0  0  0  0  0  0  0  0  0  0  0  0
  -14.4455    0.9711  -17.5194 C   0  0  0  0  0  0  0  0  0  0  0  0
  -15.2543    1.0871  -16.3736 C   0  0  0  0  0  0  0  0  0  0  0  0
  -16.4701    1.7436  -16.3240 N   0  0  0  0  0  0  0  0  0  0  0  0
  -16.9806    1.6238  -15.1319 C   0  0  0  0  0  0  0  0  0  0  0  0
  -16.0297    0.8111  -13.9737 S   0  0  0  0  0  0  0  0  0  0  0  0
  -14.8379    0.4745  -15.1841 C   0  0  0  0  0  0  0  0  0  0  0  0
  -18.1904    2.0247  -14.6513 N   0  0  0  0  0  0  0  0  0  0  0  0
  -19.3587    1.3279  -14.8412 C   0  0  0  0  0  0  0  0  0  0  0  0
  -19.5528    0.2998  -15.4618 O   0  0  0  0  0  0  0  0  0  0  0  0
  -18.1995    2.8510  -14.0748 H   0  0  0  0  0  0  0  0  0  0  0  0
  -20.4865    1.9896  -14.0835 C   0  0  0  0  0  0  0  0  0  0  0  0
  -20.9359    3.0882  -15.1526 C   0  0  0  0  0  0  0  0  0  0  0  0
  -21.8668    2.6324  -14.1675 C   0  0  0  0  0  0  0  0  0  0  0  0
  -13.0185   -1.3895  -12.8622 N   0  0  0  0  0  0  0  0  0  0  0  0
  -13.2738   -0.8852  -13.8790 C   0  0  0  0  0  0  0  0  0  0  0  0
 39 40  3  0  0  0
 40 23  1  0  0  0
 23 24  1  0  0  0
 23 31  2  0  0  0
 24 22  1  0  0  0
 24 25  2  0  0  0
 22  1  1  0  0  0
  1  2  1  0  0  0
  1  6  2  0  0  0
  2  3  2  0  0  0
  3  4  1  0  0  0
  4  5  2  0  0  0
  5  7  1  0  0  0
  5  6  1  0  0  0
  7  8  1  0  0  0
  7 10  1  0  0  0
  8  9  2  0  0  0
  8 11  1  0  0  0
 11 12  1  0  0  0
 12 13  1  0  0  0
 12 17  2  0  0  0
 13 14  2  0  0  0
 14 15  1  0  0  0
 15 16  2  0  0  0
 16 18  1  0  0  0
 16 17  1  0  0  0
 18 19  1  0  0  0
 18 20  1  0  0  0
 18 21  1  0  0  0
 25 26  1  0  0  0
 26 27  2  0  0  0
 27 28  1  0  0  0
 27 31  1  0  0  0
 28 29  2  0  0  0
 29 32  1  0  0  0
 29 30  1  0  0  0
 32 33  1  0  0  0
 32 35  1  0  0  0
 33 34  2  0  0  0
 33 36  1  0  0  0
 36 37  1  0  0  0
 36 38  1  0  0  0
 37 38  1  0  0  0
 30 31  1  0  0  0
M  END
> <minimizedAffinity>
-8.00982

$$$$
