CHEMBL4213341


 40 44  0  0  0  0  0  0  0  0999 V2000
  -27.1030   -2.7207  -10.3863 N   0  0  0  0  0  0  0  0  0  0  0  0
  -27.5132   -3.5526  -10.7782 H   0  0  0  0  0  0  0  0  0  0  0  0
  -28.3303   -3.3154   -7.0658 C   0  0  0  0  0  0  0  0  0  0  0  0
  -28.2265   -2.0597   -6.5102 C   0  0  0  0  0  0  0  0  0  0  0  0
  -27.7243   -1.0661   -7.3152 C   0  0  0  0  0  0  0  0  0  0  0  0
  -27.3766   -1.2455   -8.6020 N   0  0  0  0  0  0  0  0  0  0  0  0
  -27.4940   -2.4905   -9.0713 C   0  0  0  0  0  0  0  0  0  0  0  0
  -27.9568   -3.5172   -8.3382 N   0  0  0  0  0  0  0  0  0  0  0  0
  -28.7508   -4.4225   -6.2920 N   0  0  0  0  0  0  0  0  0  0  0  0
  -28.8163   -4.1103   -4.8623 C   0  0  0  0  0  0  0  0  0  0  0  0
  -31.8966  -10.1411   -7.9640 C   0  0  0  0  0  0  0  0  0  0  0  0
  -30.7217   -9.2470   -8.1051 C   0  0  0  0  0  0  0  0  0  0  0  0
  -30.3866   -8.0445   -7.5318 C   0  0  0  0  0  0  0  0  0  0  0  0
  -31.1440   -7.3440   -6.6036 C   0  0  0  0  0  0  0  0  0  0  0  0
  -30.5113   -6.1325   -6.2471 C   0  0  0  0  0  0  0  0  0  0  0  0
  -29.2422   -5.6638   -6.7593 C   0  0  0  0  0  0  0  0  0  0  0  0
  -28.5145   -6.4311   -7.7040 C   0  0  0  0  0  0  0  0  0  0  0  0
  -29.1201   -7.6429   -8.0843 C   0  0  0  0  0  0  0  0  0  0  0  0
  -28.6962   -8.5812   -8.9453 N   0  0  0  0  0  0  0  0  0  0  0  0
  -29.6679   -9.5175   -8.9465 N   0  0  0  0  0  0  0  0  0  0  0  0
  -29.5271  -10.6698   -9.8083 C   0  0  0  0  0  0  0  0  0  0  0  0
  -26.2920   -1.9125  -11.1914 C   0  0  0  0  0  0  0  0  0  0  0  0
  -26.5638   -1.7848  -12.5523 C   0  0  0  0  0  0  0  0  0  0  0  0
  -25.6481   -1.1453  -13.3887 C   0  0  0  0  0  0  0  0  0  0  0  0
  -24.4453   -0.6308  -12.8715 C   0  0  0  0  0  0  0  0  0  0  0  0
  -24.1878   -0.6908  -11.5093 C   0  0  0  0  0  0  0  0  0  0  0  0
  -25.1152   -1.3303  -10.6858 C   0  0  0  0  0  0  0  0  0  0  0  0
  -23.5092   -0.0077  -13.8351 C   0  0  0  0  0  0  0  0  0  0  0  0
  -23.6818   -0.2985  -15.0170 O   0  0  0  0  0  0  0  0  0  0  0  0
  -22.4761    0.7612  -13.3061 N   0  0  0  0  0  0  0  0  0  0  0  0
  -22.3660    0.8117  -12.3105 H   0  0  0  0  0  0  0  0  0  0  0  0
  -21.3974    1.2763  -14.0867 C   0  0  0  0  0  0  0  0  0  0  0  0
  -20.4095    0.4271  -14.6000 C   0  0  0  0  0  0  0  0  0  0  0  0
  -19.3012    0.9327  -15.2823 C   0  0  0  0  0  0  0  0  0  0  0  0
  -19.2001    2.2978  -15.5026 C   0  0  0  0  0  0  0  0  0  0  0  0
  -20.2135    3.1523  -15.0654 C   0  0  0  0  0  0  0  0  0  0  0  0
  -21.2992    2.6601  -14.3125 C   0  0  0  0  0  0  0  0  0  0  0  0
  -22.3316    3.5648  -13.9654 N   0  0  0  0  0  0  0  0  0  0  0  0
  -22.0274    4.5345  -13.9970 H   0  0  0  0  0  0  0  0  0  0  0  0
  -22.7651    3.3556  -13.0737 H   0  0  0  0  0  0  0  0  0  0  0  0
 11 12  1  0  0  0
 12 13  2  0  0  0
 12 20  1  0  0  0
 13 14  1  0  0  0
 13 18  1  0  0  0
 14 15  2  0  0  0
 15 16  1  0  0  0
 16  9  1  0  0  0
 16 17  2  0  0  0
  9 10  1  0  0  0
  9  3  1  0  0  0
  3  4  1  0  0  0
  3  8  2  0  0  0
  4  5  2  0  0  0
  5  6  1  0  0  0
  6  7  2  0  0  0
  7  1  1  0  0  0
  7  8  1  0  0  0
  1 22  1  0  0  0
  1  2  1  0  0  0
 22 23  1  0  0  0
 22 27  2  0  0  0
 23 24  2  0  0  0
 24 25  1  0  0  0
 25 28  1  0  0  0
 25 26  2  0  0  0
 28 29  2  0  0  0
 28 30  1  0  0  0
 30 32  1  0  0  0
 30 31  1  0  0  0
 32 33  1  0  0  0
 32 37  2  0  0  0
 33 34  2  0  0  0
 34 35  1  0  0  0
 35 36  2  0  0  0
 36 37  1  0  0  0
 37 38  1  0  0  0
 38 39  1  0  0  0
 38 40  1  0  0  0
 26 27  1  0  0  0
 17 18  1  0  0  0
 18 19  2  0  0  0
 19 20  1  0  0  0
 20 21  1  0  0  0
M  END
> <minimizedAffinity>
-11.76820

$$$$
