CHEMBL3671491


 34 36  0  0  0  0  0  0  0  0999 V2000
  -26.7774   -9.0119   -5.0661 C   0  0  0  0  0  0  0  0  0  0  0  0
  -27.5906   -8.0504   -4.4626 C   0  0  0  0  0  0  0  0  0  0  0  0
  -28.8612   -7.7556   -4.9974 C   0  0  0  0  0  0  0  0  0  0  0  0
  -29.6795   -6.6975   -4.5677 C   0  0  0  0  0  0  0  0  0  0  0  0
  -30.8847   -6.4692   -5.1195 N   0  0  0  0  0  0  0  0  0  0  0  0
  -31.2614   -7.2726   -6.1153 C   0  0  0  0  0  0  0  0  0  0  0  0
  -30.5361   -8.2657   -6.6395 N   0  0  0  0  0  0  0  0  0  0  0  0
  -29.3402   -8.4928   -6.0909 C   0  0  0  0  0  0  0  0  0  0  0  0
  -28.5245   -9.4751   -6.6496 C   0  0  0  0  0  0  0  0  0  0  0  0
  -27.2492   -9.7599   -6.1513 C   0  0  0  0  0  0  0  0  0  0  0  0
  -24.9330  -10.0569   -3.8420 C   0  0  0  0  0  0  0  0  0  0  0  0
  -23.7204  -10.2181   -3.7410 O   0  0  0  0  0  0  0  0  0  0  0  0
  -25.4354   -9.0766   -4.6652 N   0  0  0  0  0  0  0  0  0  0  0  0
  -24.7388   -8.8238   -5.3563 H   0  0  0  0  0  0  0  0  0  0  0  0
  -25.4464  -11.9252   -2.3763 C   0  0  0  0  0  0  0  0  0  0  0  0
  -25.9085  -10.9334   -3.1444 C   0  0  0  0  0  0  0  0  0  0  0  0
  -29.2054   -5.7853   -3.5866 N   0  0  0  0  0  0  0  0  0  0  0  0
  -29.6760   -5.9278   -2.6969 H   0  0  0  0  0  0  0  0  0  0  0  0
  -28.9541   -4.4142   -3.8372 C   0  0  0  0  0  0  0  0  0  0  0  0
  -27.7440   -3.9934   -4.4072 C   0  0  0  0  0  0  0  0  0  0  0  0
  -27.5382   -2.6549   -4.7465 C   0  0  0  0  0  0  0  0  0  0  0  0
  -28.5393   -1.7191   -4.4954 C   0  0  0  0  0  0  0  0  0  0  0  0
  -28.2908    0.0753   -5.0336 Br  0  0  0  0  0  0  0  0  0  0  0  0
  -29.7235   -2.1003   -3.8701 C   0  0  0  0  0  0  0  0  0  0  0  0
  -29.9144   -3.4398   -3.5375 C   0  0  0  0  0  0  0  0  0  0  0  0
  -31.0644   -3.8073   -2.9501 F   0  0  0  0  0  0  0  0  0  0  0  0
  -26.5394  -10.7133   -6.8466 O   0  0  0  0  0  0  0  0  0  0  0  0
  -27.3249  -11.8229   -7.3016 C   0  0  0  0  0  0  0  0  0  0  0  0
  -26.9210  -12.2573   -8.7134 C   0  0  0  0  0  0  0  0  0  0  0  0
  -27.9056  -11.8261   -9.6987 N   0  0  0  0  0  0  0  0  0  0  0  0
  -27.6438  -10.7934  -10.5701 C   0  0  0  0  0  0  0  0  0  0  0  0
  -28.8217  -10.3666  -11.4066 C   0  0  0  0  0  0  0  0  0  0  0  0
  -26.5463  -10.2554  -10.6685 O   0  0  0  0  0  0  0  0  0  0  0  0
  -28.8584  -12.1529   -9.5957 H   0  0  0  0  0  0  0  0  0  0  0  0
 15 16  2  0  0  0
 16 11  1  0  0  0
 11 12  2  0  0  0
 11 13  1  0  0  0
 13  1  1  0  0  0
 13 14  1  0  0  0
  1  2  1  0  0  0
  1 10  2  0  0  0
  2  3  2  0  0  0
  3  4  1  0  0  0
  3  8  1  0  0  0
  4 17  1  0  0  0
  4  5  2  0  0  0
 17 19  1  0  0  0
 17 18  1  0  0  0
 19 20  1  0  0  0
 19 25  2  0  0  0
 20 21  2  0  0  0
 21 22  1  0  0  0
 22 23  1  0  0  0
 22 24  2  0  0  0
 24 25  1  0  0  0
 25 26  1  0  0  0
  5  6  1  0  0  0
  6  7  2  0  0  0
  7  8  1  0  0  0
  8  9  2  0  0  0
  9 10  1  0  0  0
 10 27  1  0  0  0
 27 28  1  0  0  0
 28 29  1  0  0  0
 29 30  1  0  0  0
 30 31  1  0  0  0
 30 34  1  0  0  0
 31 32  1  0  0  0
 31 33  2  0  0  0
M  END
> <minimizedAffinity>
-7.93067

$$$$
