CHEMBL4434973


 30 32  0  0  0  0  0  0  0  0999 V2000
  -27.2811   -1.9170   -9.7895 C   0  0  0  0  0  0  0  0  0  0  0  0
  -28.2486   -1.5641  -10.6491 N   0  0  0  0  0  0  0  0  0  0  0  0
  -27.8642   -1.2675  -11.8971 C   0  0  0  0  0  0  0  0  0  0  0  0
  -26.5586   -1.3238  -12.3145 C   0  0  0  0  0  0  0  0  0  0  0  0
  -25.6202   -1.6684  -11.3597 C   0  0  0  0  0  0  0  0  0  0  0  0
  -25.9727   -1.9618  -10.0912 N   0  0  0  0  0  0  0  0  0  0  0  0
  -24.2596   -1.6724  -11.7513 N   0  0  0  0  0  0  0  0  0  0  0  0
  -23.6835   -2.1886  -11.0972 H   0  0  0  0  0  0  0  0  0  0  0  0
  -23.5846   -0.6609  -12.4584 C   0  0  0  0  0  0  0  0  0  0  0  0
  -22.6277   -0.9845  -13.4307 C   0  0  0  0  0  0  0  0  0  0  0  0
  -21.9538    0.0211  -14.1404 C   0  0  0  0  0  0  0  0  0  0  0  0
  -22.2385    1.3678  -13.8840 C   0  0  0  0  0  0  0  0  0  0  0  0
  -23.2182    1.6973  -12.9453 C   0  0  0  0  0  0  0  0  0  0  0  0
  -23.8776    0.6906  -12.2380 C   0  0  0  0  0  0  0  0  0  0  0  0
  -21.5738    2.4846  -14.6048 C   0  0  0  0  0  0  0  0  0  0  0  0
  -20.6697    2.3112  -15.4016 O   0  0  0  0  0  0  0  0  0  0  0  0
  -22.0977    3.6986  -14.3382 O   0  0  0  0  0  0  0  0  0  0  0  0
  -22.9235    3.6970  -13.8229 H   0  0  0  0  0  0  0  0  0  0  0  0
  -27.8407   -2.3908   -8.1743 S   0  0  0  0  0  0  0  0  0  0  0  0
  -27.8578   -0.7874   -7.3222 C   0  0  0  0  0  0  0  0  0  0  0  0
  -27.9026   -0.9559   -5.8069 C   0  0  0  0  0  0  0  0  0  0  0  0
  -27.4477   -0.1407   -5.0084 O   0  0  0  0  0  0  0  0  0  0  0  0
  -29.6992   -4.5230   -4.1739 C   0  0  0  0  0  0  0  0  0  0  0  0
  -28.3428   -4.2592   -3.9933 C   0  0  0  0  0  0  0  0  0  0  0  0
  -27.7762   -3.0979   -4.5319 C   0  0  0  0  0  0  0  0  0  0  0  0
  -28.5575   -2.1867   -5.2584 C   0  0  0  0  0  0  0  0  0  0  0  0
  -29.9180   -2.4561   -5.4392 C   0  0  0  0  0  0  0  0  0  0  0  0
  -30.4790   -3.6178   -4.8982 C   0  0  0  0  0  0  0  0  0  0  0  0
  -31.7758   -5.4473   -3.4848 C   0  0  0  0  0  0  0  0  0  0  0  0
  -30.3787   -5.6090   -3.6975 O   0  0  0  0  0  0  0  0  0  0  0  0
 29 30  1  0  0  0
 30 23  1  0  0  0
 23 24  1  0  0  0
 23 28  2  0  0  0
 24 25  2  0  0  0
 25 26  1  0  0  0
 26 21  1  0  0  0
 26 27  2  0  0  0
 21 22  2  0  0  0
 21 20  1  0  0  0
 20 19  1  0  0  0
 19  1  1  0  0  0
  1  2  1  0  0  0
  1  6  2  0  0  0
  2  3  2  0  0  0
  3  4  1  0  0  0
  4  5  2  0  0  0
  5  7  1  0  0  0
  5  6  1  0  0  0
  7  9  1  0  0  0
  7  8  1  0  0  0
  9 10  1  0  0  0
  9 14  2  0  0  0
 10 11  2  0  0  0
 11 12  1  0  0  0
 12 15  1  0  0  0
 12 13  2  0  0  0
 15 16  2  0  0  0
 15 17  1  0  0  0
 17 18  1  0  0  0
 13 14  1  0  0  0
 27 28  1  0  0  0
M  END
> <minimizedAffinity>
-9.06115

$$$$
