CHEMBL1681964


 28 29  0  0  0  0  0  0  0  0999 V2000
  -21.0200    2.1335  -14.7062 C   0  0  0  0  0  0  0  0  0  0  0  0
  -22.1525    2.6126  -14.0486 C   0  0  0  0  0  0  0  0  0  0  0  0
  -23.0309    1.7505  -13.3990 C   0  0  0  0  0  0  0  0  0  0  0  0
  -22.8380    0.3718  -13.4713 C   0  0  0  0  0  0  0  0  0  0  0  0
  -21.7215   -0.1275  -14.1404 C   0  0  0  0  0  0  0  0  0  0  0  0
  -20.8156    0.7491  -14.7667 C   0  0  0  0  0  0  0  0  0  0  0  0
  -18.0077    3.8936  -15.7667 N   0  0  0  0  0  0  0  0  0  0  0  0
  -18.7072    2.8858  -15.1303 C   0  0  0  0  0  0  0  0  0  0  0  0
  -18.1235    1.9917  -14.5284 O   0  0  0  0  0  0  0  0  0  0  0  0
  -20.0721    3.0046  -15.2942 N   0  0  0  0  0  0  0  0  0  0  0  0
  -18.4505    4.8004  -15.7355 H   0  0  0  0  0  0  0  0  0  0  0  0
  -20.3743    3.5612  -16.0807 H   0  0  0  0  0  0  0  0  0  0  0  0
  -15.8286    4.2071  -16.8985 C   0  0  0  0  0  0  0  0  0  0  0  0
  -16.5626    3.8527  -15.6253 C   0  0  0  0  0  0  0  0  0  0  0  0
  -23.6879   -0.5280  -12.8566 O   0  0  0  0  0  0  0  0  0  0  0  0
  -24.8362   -0.9082  -13.5511 C   0  0  0  0  0  0  0  0  0  0  0  0
  -24.8441   -0.7705  -14.8972 N   0  0  0  0  0  0  0  0  0  0  0  0
  -25.9612   -1.1473  -15.5213 C   0  0  0  0  0  0  0  0  0  0  0  0
  -27.0337   -1.6946  -14.9400 N   0  0  0  0  0  0  0  0  0  0  0  0
  -26.9765   -1.8655  -13.6077 C   0  0  0  0  0  0  0  0  0  0  0  0
  -28.1491   -2.3613  -13.0412 N   0  0  0  0  0  0  0  0  0  0  0  0
  -25.8844   -1.4676  -12.8488 C   0  0  0  0  0  0  0  0  0  0  0  0
  -28.7533   -2.7216  -13.7720 H   0  0  0  0  0  0  0  0  0  0  0  0
  -27.9558   -3.0197  -12.2866 H   0  0  0  0  0  0  0  0  0  0  0  0
  -25.8184   -1.6522  -11.3934 C   0  0  0  0  0  0  0  0  0  0  0  0
  -26.8431   -1.4128  -10.6349 N   0  0  0  0  0  0  0  0  0  0  0  0
  -26.5022   -1.6809   -9.3023 O   0  0  0  0  0  0  0  0  0  0  0  0
  -27.5670   -2.4169   -8.7094 C   0  0  0  0  0  0  0  0  0  0  0  0
 13 14  1  0  0  0
 14  7  1  0  0  0
  7  8  1  0  0  0
  7 11  1  0  0  0
  8  9  2  0  0  0
  8 10  1  0  0  0
 10  1  1  0  0  0
 10 12  1  0  0  0
  1  2  1  0  0  0
  1  6  2  0  0  0
  2  3  2  0  0  0
  3  4  1  0  0  0
  4 15  1  0  0  0
  4  5  2  0  0  0
 15 16  1  0  0  0
 16 17  1  0  0  0
 16 22  2  0  0  0
 17 18  2  0  0  0
 18 19  1  0  0  0
 19 20  2  0  0  0
 20 21  1  0  0  0
 20 22  1  0  0  0
 21 23  1  0  0  0
 21 24  1  0  0  0
 22 25  1  0  0  0
 25 26  2  0  0  0
 26 27  1  0  0  0
 27 28  1  0  0  0
  5  6  1  0  0  0
M  END
> <minimizedAffinity>
-7.87167

$$$$
