CHEMBL2016895


 29 33  0  0  0  0  0  0  0  0999 V2000
  -18.6615    2.2842  -15.1102 C   0  0  0  0  0  0  0  0  0  0  0  0
  -19.5584    3.2218  -14.8470 N   0  0  0  0  0  0  0  0  0  0  0  0
  -20.6526    2.5609  -14.3977 C   0  0  0  0  0  0  0  0  0  0  0  0
  -20.4516    1.2096  -14.3680 C   0  0  0  0  0  0  0  0  0  0  0  0
  -19.1786    1.0312  -14.8303 N   0  0  0  0  0  0  0  0  0  0  0  0
  -21.4194    0.1770  -13.9455 C   0  0  0  0  0  0  0  0  0  0  0  0
  -22.7755    0.7112  -13.6566 N   0  0  0  0  0  0  0  0  0  0  0  0
  -23.0386    2.1450  -14.0015 C   0  0  0  0  0  0  0  0  0  0  0  0
  -21.9100    3.1956  -14.0092 C   0  0  0  0  0  0  0  0  0  0  0  0
  -18.6791    0.1578  -14.9640 H   0  0  0  0  0  0  0  0  0  0  0  0
  -16.4532    0.3963  -14.7497 O   0  0  0  0  0  0  0  0  0  0  0  0
  -16.2623    1.4208  -15.4053 C   0  0  0  0  0  0  0  0  0  0  0  0
  -15.0484    1.6749  -15.9909 N   0  0  0  0  0  0  0  0  0  0  0  0
  -14.7613    2.8434  -16.7047 C   0  0  0  0  0  0  0  0  0  0  0  0
  -13.4956    3.0491  -17.2484 C   0  0  0  0  0  0  0  0  0  0  0  0
  -13.2162    4.2325  -17.9359 C   0  0  0  0  0  0  0  0  0  0  0  0
  -14.2066    5.2120  -18.0805 C   0  0  0  0  0  0  0  0  0  0  0  0
  -15.4805    4.9999  -17.5430 C   0  0  0  0  0  0  0  0  0  0  0  0
  -15.7543    3.8179  -16.8573 C   0  0  0  0  0  0  0  0  0  0  0  0
  -17.0769    3.5661  -16.2945 C   0  0  0  0  0  0  0  0  0  0  0  0
  -17.3430    2.4428  -15.6041 C   0  0  0  0  0  0  0  0  0  0  0  0
  -14.3332    0.9716  -15.8596 H   0  0  0  0  0  0  0  0  0  0  0  0
  -23.8216   -0.0910  -14.3416 C   0  0  0  0  0  0  0  0  0  0  0  0
  -24.9291   -0.7032  -13.5079 C   0  0  0  0  0  0  0  0  0  0  0  0
  -26.0063   -1.4053  -14.0583 C   0  0  0  0  0  0  0  0  0  0  0  0
  -26.9851   -1.9660  -13.2324 C   0  0  0  0  0  0  0  0  0  0  0  0
  -26.8777   -1.8683  -11.8426 C   0  0  0  0  0  0  0  0  0  0  0  0
  -25.7871   -1.2166  -11.2796 C   0  0  0  0  0  0  0  0  0  0  0  0
  -24.8214   -0.6385  -12.1047 C   0  0  0  0  0  0  0  0  0  0  0  0
 11 12  2  0  0  0
 12 13  1  0  0  0
 12 21  1  0  0  0
 13 14  1  0  0  0
 13 22  1  0  0  0
 14 15  1  0  0  0
 14 19  2  0  0  0
 15 16  2  0  0  0
 16 17  1  0  0  0
 17 18  2  0  0  0
 18 19  1  0  0  0
 19 20  1  0  0  0
 20 21  2  0  0  0
 21  1  1  0  0  0
  1  2  2  0  0  0
  1  5  1  0  0  0
  2  3  1  0  0  0
  3  4  2  0  0  0
  3  9  1  0  0  0
  4  5  1  0  0  0
  4  6  1  0  0  0
  5 10  1  0  0  0
  6  7  1  0  0  0
  7 23  1  0  0  0
  7  8  1  0  0  0
 23 24  1  0  0  0
 24 25  1  0  0  0
 24 29  2  0  0  0
 25 26  2  0  0  0
 26 27  1  0  0  0
 27 28  2  0  0  0
 28 29  1  0  0  0
  8  9  1  0  0  0
M  END
> <minimizedAffinity>
-9.16274

$$$$
