CHEMBL3093583


 41 46  0  0  0  0  0  0  0  0999 V2000
  -22.6675   -0.3260  -13.9193 C   0  0  0  0  0  0  0  0  0  0  0  0
  -22.7599   -0.9113  -12.6489 C   0  0  0  0  0  0  0  0  0  0  0  0
  -23.8727   -1.6681  -12.2798 C   0  0  0  0  0  0  0  0  0  0  0  0
  -24.9145   -1.8268  -13.1840 C   0  0  0  0  0  0  0  0  0  0  0  0
  -24.8743   -1.1831  -14.4194 C   0  0  0  0  0  0  0  0  0  0  0  0
  -25.9188   -1.2452  -15.2560 F   0  0  0  0  0  0  0  0  0  0  0  0
  -23.7547   -0.4426  -14.7916 C   0  0  0  0  0  0  0  0  0  0  0  0
  -22.1999    2.5572  -14.0410 O   0  0  0  0  0  0  0  0  0  0  0  0
  -21.3507    1.7325  -14.3717 C   0  0  0  0  0  0  0  0  0  0  0  0
  -21.5200    0.3650  -14.3687 N   0  0  0  0  0  0  0  0  0  0  0  0
  -20.6999   -0.2041  -14.5966 H   0  0  0  0  0  0  0  0  0  0  0  0
  -20.0001    2.2217  -14.7884 C   0  0  0  0  0  0  0  0  0  0  0  0
  -19.9125    3.5279  -15.1014 C   0  0  0  0  0  0  0  0  0  0  0  0
  -18.6596    4.1328  -15.4546 C   0  0  0  0  0  0  0  0  0  0  0  0
  -17.5552    3.3870  -15.4934 C   0  0  0  0  0  0  0  0  0  0  0  0
  -17.5751    2.0277  -15.2011 N   0  0  0  0  0  0  0  0  0  0  0  0
  -18.7734    1.3688  -14.8510 C   0  0  0  0  0  0  0  0  0  0  0  0
  -18.8839    0.1576  -14.6439 O   0  0  0  0  0  0  0  0  0  0  0  0
  -16.3754    1.2599  -15.2953 C   0  0  0  0  0  0  0  0  0  0  0  0
  -15.9463    0.4988  -14.1988 C   0  0  0  0  0  0  0  0  0  0  0  0
  -14.7495   -0.2146  -14.2649 C   0  0  0  0  0  0  0  0  0  0  0  0
  -13.9978   -0.2128  -15.4397 C   0  0  0  0  0  0  0  0  0  0  0  0
  -14.4393    0.5116  -16.5474 C   0  0  0  0  0  0  0  0  0  0  0  0
  -15.6157    1.2586  -16.4714 C   0  0  0  0  0  0  0  0  0  0  0  0
  -26.0333   -2.5445  -12.7352 O   0  0  0  0  0  0  0  0  0  0  0  0
  -26.6208   -2.2036  -11.5263 C   0  0  0  0  0  0  0  0  0  0  0  0
  -27.2249   -0.8637  -11.7049 C   0  0  0  0  0  0  0  0  0  0  0  0
  -27.8988   -0.3728  -10.6582 C   0  0  0  0  0  0  0  0  0  0  0  0
  -27.9764   -1.1353   -9.4739 C   0  0  0  0  0  0  0  0  0  0  0  0
  -28.5765   -0.8935   -8.3318 N   0  0  0  0  0  0  0  0  0  0  0  0
  -28.3269   -1.9811   -7.5489 C   0  0  0  0  0  0  0  0  0  0  0  0
  -27.5617   -2.9081   -8.2183 C   0  0  0  0  0  0  0  0  0  0  0  0
  -27.3299   -2.3609   -9.4529 N   0  0  0  0  0  0  0  0  0  0  0  0
  -26.6181   -2.9396  -10.4625 N   0  0  0  0  0  0  0  0  0  0  0  0
  -28.7869   -2.1169   -6.2606 N   0  0  0  0  0  0  0  0  0  0  0  0
  -28.0815   -1.7115   -5.1488 C   0  0  0  0  0  0  0  0  0  0  0  0
  -26.9801   -1.1845   -5.1072 O   0  0  0  0  0  0  0  0  0  0  0  0
  -29.6823   -2.5643   -6.1431 H   0  0  0  0  0  0  0  0  0  0  0  0
  -28.7931   -2.0116   -3.8646 C   0  0  0  0  0  0  0  0  0  0  0  0
  -28.6579   -3.3729   -3.2169 C   0  0  0  0  0  0  0  0  0  0  0  0
  -29.9499   -2.9870   -3.8756 C   0  0  0  0  0  0  0  0  0  0  0  0
  8  9  2  0  0  0
  9 10  1  0  0  0
  9 12  1  0  0  0
 10  1  1  0  0  0
 10 11  1  0  0  0
  1  2  1  0  0  0
  1  7  2  0  0  0
  2  3  2  0  0  0
  3  4  1  0  0  0
  4 25  1  0  0  0
  4  5  2  0  0  0
 25 26  1  0  0  0
 26 27  1  0  0  0
 26 34  2  0  0  0
 27 28  2  0  0  0
 28 29  1  0  0  0
 29 30  2  0  0  0
 29 33  1  0  0  0
 30 31  1  0  0  0
 31 35  1  0  0  0
 31 32  2  0  0  0
 35 36  1  0  0  0
 35 38  1  0  0  0
 36 37  2  0  0  0
 36 39  1  0  0  0
 39 40  1  0  0  0
 39 41  1  0  0  0
 40 41  1  0  0  0
 32 33  1  0  0  0
 33 34  1  0  0  0
  5  6  1  0  0  0
  5  7  1  0  0  0
 12 13  2  0  0  0
 12 17  1  0  0  0
 13 14  1  0  0  0
 14 15  2  0  0  0
 15 16  1  0  0  0
 16 19  1  0  0  0
 16 17  1  0  0  0
 19 20  1  0  0  0
 19 24  2  0  0  0
 20 21  2  0  0  0
 21 22  1  0  0  0
 22 23  2  0  0  0
 23 24  1  0  0  0
 17 18  2  0  0  0
M  END
> <minimizedAffinity>
-8.92251

$$$$
