CHEMBL4109002


 49 53  0  0  0  0  0  0  0  0999 V2000
  -27.9541   -2.1155   -8.2632 C   0  0  0  0  0  0  0  0  0  0  0  0
  -28.0211   -1.3005   -7.1503 C   0  0  0  0  0  0  0  0  0  0  0  0
  -28.7543   -1.8833   -6.0804 C   0  0  0  0  0  0  0  0  0  0  0  0
  -28.9495   -1.2884   -4.8740 N   0  0  0  0  0  0  0  0  0  0  0  0
  -29.6784   -1.9896   -3.9894 C   0  0  0  0  0  0  0  0  0  0  0  0
  -30.2213   -3.2378   -4.2208 C   0  0  0  0  0  0  0  0  0  0  0  0
  -29.9607   -3.8763   -5.4374 C   0  0  0  0  0  0  0  0  0  0  0  0
  -29.2374   -3.1518   -6.3985 C   0  0  0  0  0  0  0  0  0  0  0  0
  -28.7865   -3.5889   -7.9989 S   0  0  0  0  0  0  0  0  0  0  0  0
  -28.1073   -2.0092  -10.6403 N   0  0  0  0  0  0  0  0  0  0  0  0
  -27.2843   -1.8865   -9.5347 C   0  0  0  0  0  0  0  0  0  0  0  0
  -26.0935   -1.6109   -9.6508 O   0  0  0  0  0  0  0  0  0  0  0  0
  -29.0283   -2.4070  -10.5197 H   0  0  0  0  0  0  0  0  0  0  0  0
  -27.6036   -1.8445  -11.9859 C   0  0  0  0  0  0  0  0  0  0  0  0
  -26.3729   -0.9385  -12.0583 C   0  0  0  0  0  0  0  0  0  0  0  0
  -25.7915   -0.8946  -13.4788 C   0  0  0  0  0  0  0  0  0  0  0  0
  -23.6612    0.0684  -12.7474 C   0  0  0  0  0  0  0  0  0  0  0  0
  -22.5547   -0.6184  -11.9461 C   0  0  0  0  0  0  0  0  0  0  0  0
  -23.0768   -2.0241  -11.7565 C   0  0  0  0  0  0  0  0  0  0  0  0
  -23.9796   -2.0737  -10.6507 O   0  0  0  0  0  0  0  0  0  0  0  0
  -23.7927   -2.3040  -13.0715 C   0  0  0  0  0  0  0  0  0  0  0  0
  -24.3296   -1.0114  -13.5393 N   0  0  0  0  0  0  0  0  0  0  0  0
  -24.7838   -1.5878  -10.8978 H   0  0  0  0  0  0  0  0  0  0  0  0
  -23.1170    1.1774  -13.6561 C   0  0  0  0  0  0  0  0  0  0  0  0
  -23.4121    2.3636  -13.5737 O   0  0  0  0  0  0  0  0  0  0  0  0
  -20.9884    1.1825  -14.6402 C   0  0  0  0  0  0  0  0  0  0  0  0
  -22.3132    0.6497  -14.6276 O   0  0  0  0  0  0  0  0  0  0  0  0
  -30.4032   -5.1587   -5.7160 O   0  0  0  0  0  0  0  0  0  0  0  0
  -29.5996   -6.2167   -5.3431 C   0  0  0  0  0  0  0  0  0  0  0  0
  -29.3725   -6.5734   -4.0128 C   0  0  0  0  0  0  0  0  0  0  0  0
  -28.6597   -7.7306   -3.7057 C   0  0  0  0  0  0  0  0  0  0  0  0
  -28.1268   -8.5282   -4.7227 C   0  0  0  0  0  0  0  0  0  0  0  0
  -28.2374   -8.0852   -6.0409 C   0  0  0  0  0  0  0  0  0  0  0  0
  -27.6792   -8.7975   -7.0329 F   0  0  0  0  0  0  0  0  0  0  0  0
  -28.9796   -6.9440   -6.3618 C   0  0  0  0  0  0  0  0  0  0  0  0
  -27.4797   -9.7581   -4.4319 N   0  0  0  0  0  0  0  0  0  0  0  0
  -26.1256   -9.8280   -4.1632 C   0  0  0  0  0  0  0  0  0  0  0  0
  -25.4149   -8.8329   -4.0090 O   0  0  0  0  0  0  0  0  0  0  0  0
  -25.6443  -11.1243   -4.1192 N   0  0  0  0  0  0  0  0  0  0  0  0
  -28.0545  -10.4918   -4.0359 H   0  0  0  0  0  0  0  0  0  0  0  0
  -26.0776  -11.7378   -4.8007 H   0  0  0  0  0  0  0  0  0  0  0  0
  -24.2391  -11.2974   -3.9751 C   0  0  0  0  0  0  0  0  0  0  0  0
  -23.4094  -11.4142   -5.0975 C   0  0  0  0  0  0  0  0  0  0  0  0
  -22.0761  -11.8204   -4.9630 C   0  0  0  0  0  0  0  0  0  0  0  0
  -21.2273  -12.0455   -6.1801 C   0  0  0  0  0  0  0  0  0  0  0  0
  -21.5751  -12.0952   -3.6842 C   0  0  0  0  0  0  0  0  0  0  0  0
  -22.3793  -11.9125   -2.5552 C   0  0  0  0  0  0  0  0  0  0  0  0
  -23.6984  -11.4935   -2.7055 C   0  0  0  0  0  0  0  0  0  0  0  0
  -24.4812  -11.3826   -1.6213 F   0  0  0  0  0  0  0  0  0  0  0  0
 26 27  1  0  0  0
 27 24  1  0  0  0
 24 25  2  0  0  0
 17 18  1  0  0  0
 17 22  1  0  0  0
 17 24  1  0  0  0
 18 19  1  0  0  0
 19 20  1  0  0  0
 19 21  1  0  0  0
 20 23  1  0  0  0
 21 22  1  0  0  0
 22 16  1  0  0  0
 16 15  1  0  0  0
 15 14  1  0  0  0
 14 10  1  0  0  0
 10 11  1  0  0  0
 10 13  1  0  0  0
 11 12  2  0  0  0
 11  1  1  0  0  0
  1  2  2  0  0  0
  1  9  1  0  0  0
  2  3  1  0  0  0
  3  4  1  0  0  0
  3  8  2  0  0  0
  4  5  2  0  0  0
  5  6  1  0  0  0
  6  7  2  0  0  0
  7 28  1  0  0  0
  7  8  1  0  0  0
 28 29  1  0  0  0
 29 30  1  0  0  0
 29 35  2  0  0  0
 30 31  2  0  0  0
 31 32  1  0  0  0
 32 36  1  0  0  0
 32 33  2  0  0  0
 36 37  1  0  0  0
 36 40  1  0  0  0
 37 38  2  0  0  0
 37 39  1  0  0  0
 39 42  1  0  0  0
 39 41  1  0  0  0
 42 43  1  0  0  0
 42 48  2  0  0  0
 43 44  2  0  0  0
 44 45  1  0  0  0
 44 46  1  0  0  0
 46 47  2  0  0  0
 47 48  1  0  0  0
 48 49  1  0  0  0
 33 34  1  0  0  0
 33 35  1  0  0  0
  8  9  1  0  0  0
M  END
> <minimizedAffinity>
-10.66825

$$$$
