CHEMBL399042


 34 39  0  0  0  0  0  0  0  0999 V2000
  -28.7362   -4.1152   -7.1399 C   0  0  0  0  0  0  0  0  0  0  0  0
  -28.9007   -3.5603   -5.9274 N   0  0  0  0  0  0  0  0  0  0  0  0
  -28.3856   -2.3138   -6.1057 N   0  0  0  0  0  0  0  0  0  0  0  0
  -27.9368   -2.0632   -7.3509 C   0  0  0  0  0  0  0  0  0  0  0  0
  -27.4215   -0.9026   -7.7961 N   0  0  0  0  0  0  0  0  0  0  0  0
  -27.1076   -0.9453   -9.1202 C   0  0  0  0  0  0  0  0  0  0  0  0
  -27.2801   -2.0339   -9.9854 C   0  0  0  0  0  0  0  0  0  0  0  0
  -27.8322   -3.1926   -9.4310 C   0  0  0  0  0  0  0  0  0  0  0  0
  -28.1519   -3.2285   -8.0705 C   0  0  0  0  0  0  0  0  0  0  0  0
  -28.3978   -1.6623   -5.3249 H   0  0  0  0  0  0  0  0  0  0  0  0
  -28.8661   -8.8939   -8.4353 C   0  0  0  0  0  0  0  0  0  0  0  0
  -29.8847   -9.8667   -8.4234 C   0  0  0  0  0  0  0  0  0  0  0  0
  -31.1700   -9.5530   -7.9750 C   0  0  0  0  0  0  0  0  0  0  0  0
  -31.4807   -8.2722   -7.5047 C   0  0  0  0  0  0  0  0  0  0  0  0
  -30.4559   -7.3229   -7.5311 C   0  0  0  0  0  0  0  0  0  0  0  0
  -30.4071   -6.0089   -7.1386 N   0  0  0  0  0  0  0  0  0  0  0  0
  -29.1567   -5.5208   -7.4183 C   0  0  0  0  0  0  0  0  0  0  0  0
  -28.4025   -6.4486   -7.9642 N   0  0  0  0  0  0  0  0  0  0  0  0
  -29.1716   -7.5910   -8.0045 C   0  0  0  0  0  0  0  0  0  0  0  0
  -31.1551   -5.4646   -6.7339 H   0  0  0  0  0  0  0  0  0  0  0  0
  -27.4767   -9.2265   -8.8064 C   0  0  0  0  0  0  0  0  0  0  0  0
  -26.6862   -9.8238   -8.0920 O   0  0  0  0  0  0  0  0  0  0  0  0
  -27.1956   -9.8697  -11.0272 C   0  0  0  0  0  0  0  0  0  0  0  0
  -27.2271   -8.8059  -10.0729 O   0  0  0  0  0  0  0  0  0  0  0  0
  -26.9336   -1.9206  -11.4228 C   0  0  0  0  0  0  0  0  0  0  0  0
  -27.9533   -1.9900  -12.3826 C   0  0  0  0  0  0  0  0  0  0  0  0
  -27.7932   -1.8457  -13.7161 N   0  0  0  0  0  0  0  0  0  0  0  0
  -26.5337   -1.6206  -14.1319 C   0  0  0  0  0  0  0  0  0  0  0  0
  -25.4192   -1.5427  -13.2965 C   0  0  0  0  0  0  0  0  0  0  0  0
  -24.1295   -1.2953  -13.8110 C   0  0  0  0  0  0  0  0  0  0  0  0
  -23.0200   -1.2264  -12.9767 C   0  0  0  0  0  0  0  0  0  0  0  0
  -23.1759   -1.4057  -11.6126 C   0  0  0  0  0  0  0  0  0  0  0  0
  -24.4476   -1.6201  -11.0999 C   0  0  0  0  0  0  0  0  0  0  0  0
  -25.6108   -1.7058  -11.9108 C   0  0  0  0  0  0  0  0  0  0  0  0
 23 24  1  0  0  0
 24 21  1  0  0  0
 21 22  2  0  0  0
 21 11  1  0  0  0
 11 12  1  0  0  0
 11 19  2  0  0  0
 12 13  2  0  0  0
 13 14  1  0  0  0
 14 15  2  0  0  0
 15 16  1  0  0  0
 15 19  1  0  0  0
 16 17  1  0  0  0
 16 20  1  0  0  0
 17  1  1  0  0  0
 17 18  2  0  0  0
  1  2  2  0  0  0
  1  9  1  0  0  0
  2  3  1  0  0  0
  3  4  1  0  0  0
  3 10  1  0  0  0
  4  5  1  0  0  0
  4  9  2  0  0  0
  5  6  2  0  0  0
  6  7  1  0  0  0
  7 25  1  0  0  0
  7  8  2  0  0  0
 25 26  1  0  0  0
 25 34  2  0  0  0
 26 27  2  0  0  0
 27 28  1  0  0  0
 28 29  2  0  0  0
 29 30  1  0  0  0
 29 34  1  0  0  0
 30 31  2  0  0  0
 31 32  1  0  0  0
 32 33  2  0  0  0
 33 34  1  0  0  0
  8  9  1  0  0  0
 18 19  1  0  0  0
M  END
> <minimizedAffinity>
-9.89504

$$$$
