CHEMBL1794060


 23 25  0  0  0  0  0  0  0  0999 V2000
  -19.3854    2.6343  -15.7460 N   0  0  0  0  0  0  0  0  0  0  0  0
  -19.5711    2.8881  -16.7286 H   0  0  0  0  0  0  0  0  0  0  0  0
  -15.3820    1.3936  -15.0049 C   0  0  0  0  0  0  0  0  0  0  0  0
  -16.4533    0.6521  -14.4859 C   0  0  0  0  0  0  0  0  0  0  0  0
  -17.7657    1.0678  -14.6696 C   0  0  0  0  0  0  0  0  0  0  0  0
  -18.0544    2.2415  -15.3938 C   0  0  0  0  0  0  0  0  0  0  0  0
  -16.9817    3.0199  -15.8538 C   0  0  0  0  0  0  0  0  0  0  0  0
  -15.6496    2.6149  -15.6787 C   0  0  0  0  0  0  0  0  0  0  0  0
  -13.2784    1.1535  -13.8029 C   0  0  0  0  0  0  0  0  0  0  0  0
  -14.1030    0.9429  -14.8913 O   0  0  0  0  0  0  0  0  0  0  0  0
  -14.6877    3.4086  -16.2263 O   0  0  0  0  0  0  0  0  0  0  0  0
  -14.0453    4.4753  -15.6359 C   0  0  0  0  0  0  0  0  0  0  0  0
  -20.5260    2.3533  -14.9402 C   0  0  0  0  0  0  0  0  0  0  0  0
  -21.3937    3.3046  -14.5401 N   0  0  0  0  0  0  0  0  0  0  0  0
  -22.3858    2.6106  -13.9470 C   0  0  0  0  0  0  0  0  0  0  0  0
  -22.0702    1.2653  -13.9977 C   0  0  0  0  0  0  0  0  0  0  0  0
  -20.9298    1.1496  -14.6214 O   0  0  0  0  0  0  0  0  0  0  0  0
  -22.8354    0.1095  -13.4851 C   0  0  0  0  0  0  0  0  0  0  0  0
  -23.8668   -0.4787  -14.2367 C   0  0  0  0  0  0  0  0  0  0  0  0
  -24.5743   -1.5717  -13.7274 C   0  0  0  0  0  0  0  0  0  0  0  0
  -24.2643   -2.0844  -12.4652 C   0  0  0  0  0  0  0  0  0  0  0  0
  -23.2427   -1.5064  -11.7090 C   0  0  0  0  0  0  0  0  0  0  0  0
  -22.5281   -0.4176  -12.2153 C   0  0  0  0  0  0  0  0  0  0  0  0
  9 10  1  0  0  0
 10  3  1  0  0  0
  3  4  1  0  0  0
  3  8  2  0  0  0
  4  5  2  0  0  0
  5  6  1  0  0  0
  6  1  1  0  0  0
  6  7  2  0  0  0
  1 13  1  0  0  0
  1  2  1  0  0  0
 13 14  2  0  0  0
 13 17  1  0  0  0
 14 15  1  0  0  0
 15 16  2  0  0  0
 16 18  1  0  0  0
 16 17  1  0  0  0
 18 19  1  0  0  0
 18 23  2  0  0  0
 19 20  2  0  0  0
 20 21  1  0  0  0
 21 22  2  0  0  0
 22 23  1  0  0  0
  7  8  1  0  0  0
  8 11  1  0  0  0
 11 12  1  0  0  0
M  END
> <minimizedAffinity>
-8.18841

$$$$
