CHEMBL454440


 24 26  0  0  0  0  0  0  0  0999 V2000
  -28.8435   -6.9252   -7.2423 C   0  0  0  0  0  0  0  0  0  0  0  0
  -29.3185   -6.1637   -6.0309 C   0  0  0  0  0  0  0  0  0  0  0  0
  -29.9203   -6.8062   -4.9396 C   0  0  0  0  0  0  0  0  0  0  0  0
  -30.1421   -8.1567   -4.8487 O   0  0  0  0  0  0  0  0  0  0  0  0
  -30.3500   -6.0756   -3.8281 C   0  0  0  0  0  0  0  0  0  0  0  0
  -30.9335   -6.7267   -2.7768 O   0  0  0  0  0  0  0  0  0  0  0  0
  -30.2002   -4.7028   -3.7629 C   0  0  0  0  0  0  0  0  0  0  0  0
  -29.6058   -4.0335   -4.8327 C   0  0  0  0  0  0  0  0  0  0  0  0
  -29.4993   -2.6739   -4.6811 O   0  0  0  0  0  0  0  0  0  0  0  0
  -28.9255   -1.9401   -5.6877 C   0  0  0  0  0  0  0  0  0  0  0  0
  -28.8507   -0.5593   -5.4624 C   0  0  0  0  0  0  0  0  0  0  0  0
  -28.2827    0.2627   -6.4300 C   0  0  0  0  0  0  0  0  0  0  0  0
  -28.1865    1.6112   -6.2581 O   0  0  0  0  0  0  0  0  0  0  0  0
  -27.7896   -0.2673   -7.6146 C   0  0  0  0  0  0  0  0  0  0  0  0
  -27.8659   -1.6421   -7.8361 C   0  0  0  0  0  0  0  0  0  0  0  0
  -27.3734   -2.1389   -9.0096 O   0  0  0  0  0  0  0  0  0  0  0  0
  -28.4359   -2.4889   -6.8713 C   0  0  0  0  0  0  0  0  0  0  0  0
  -28.5450   -3.9511   -7.0486 C   0  0  0  0  0  0  0  0  0  0  0  0
  -28.1356   -4.4958   -8.0654 O   0  0  0  0  0  0  0  0  0  0  0  0
  -29.1660   -4.7477   -5.9590 C   0  0  0  0  0  0  0  0  0  0  0  0
  -29.8341   -8.6043   -5.6505 H   0  0  0  0  0  0  0  0  0  0  0  0
  -30.9305   -7.6697   -3.0418 H   0  0  0  0  0  0  0  0  0  0  0  0
  -28.5641    1.8529   -5.3963 H   0  0  0  0  0  0  0  0  0  0  0  0
  -27.0169   -1.4232   -9.5585 H   0  0  0  0  0  0  0  0  0  0  0  0
  1  2  1  0  0  0
  2  3  1  0  0  0
  2 20  2  0  0  0
  3  4  1  0  0  0
  3  5  2  0  0  0
  4 21  1  0  0  0
  5  6  1  0  0  0
  5  7  1  0  0  0
  6 22  1  0  0  0
  7  8  2  0  0  0
  8  9  1  0  0  0
  8 20  1  0  0  0
  9 10  1  0  0  0
 10 11  1  0  0  0
 10 17  2  0  0  0
 11 12  2  0  0  0
 12 13  1  0  0  0
 12 14  1  0  0  0
 13 23  1  0  0  0
 14 15  2  0  0  0
 15 16  1  0  0  0
 15 17  1  0  0  0
 16 24  1  0  0  0
 17 18  1  0  0  0
 18 19  2  0  0  0
 18 20  1  0  0  0
M  END
> <minimizedAffinity>
-8.87854

$$$$
