CHEMBL3983308


 40 42  0  0  0  0  0  0  0  0999 V2000
  -25.6273   -1.0996  -12.5185 C   0  0  0  0  0  0  0  0  0  0  0  0
  -26.7369   -1.5692  -13.4316 C   0  0  0  0  0  0  0  0  0  0  0  0
  -27.7583   -2.0268  -12.6417 N   0  0  0  0  0  0  0  0  0  0  0  0
  -27.7559   -2.0828  -11.2959 C   0  0  0  0  0  0  0  0  0  0  0  0
  -26.8153   -1.7194  -10.3903 C   0  0  0  0  0  0  0  0  0  0  0  0
  -25.7011   -1.1831  -10.9964 C   0  0  0  0  0  0  0  0  0  0  0  0
  -23.1369    0.2675  -13.2860 C   0  0  0  0  0  0  0  0  0  0  0  0
  -24.1106   -0.4322  -12.8834 C   0  0  0  0  0  0  0  0  0  0  0  0
  -19.4405    1.5340  -14.8155 C   0  0  0  0  0  0  0  0  0  0  0  0
  -19.7387    2.8264  -15.2356 C   0  0  0  0  0  0  0  0  0  0  0  0
  -21.0108    3.3281  -14.9650 C   0  0  0  0  0  0  0  0  0  0  0  0
  -22.0075    2.5368  -14.2783 C   0  0  0  0  0  0  0  0  0  0  0  0
  -21.8353    1.1865  -13.8531 C   0  0  0  0  0  0  0  0  0  0  0  0
  -20.4816    0.7264  -14.1450 C   0  0  0  0  0  0  0  0  0  0  0  0
  -17.0421    0.9649  -14.1607 C   0  0  0  0  0  0  0  0  0  0  0  0
  -17.1817    1.3697  -13.0109 O   0  0  0  0  0  0  0  0  0  0  0  0
  -18.1165    1.0129  -15.1156 N   0  0  0  0  0  0  0  0  0  0  0  0
  -17.9906    0.5997  -16.0303 H   0  0  0  0  0  0  0  0  0  0  0  0
  -13.7131   -2.6669  -13.1259 C   0  0  0  0  0  0  0  0  0  0  0  0
  -14.1721   -1.4777  -13.9008 C   0  0  0  0  0  0  0  0  0  0  0  0
  -13.3093   -0.9579  -14.9044 C   0  0  0  0  0  0  0  0  0  0  0  0
  -13.6744    0.1217  -15.7409 C   0  0  0  0  0  0  0  0  0  0  0  0
  -14.8930    0.7562  -15.4869 C   0  0  0  0  0  0  0  0  0  0  0  0
  -15.7544    0.2593  -14.4731 C   0  0  0  0  0  0  0  0  0  0  0  0
  -15.3859   -0.8171  -13.7117 C   0  0  0  0  0  0  0  0  0  0  0  0
  -27.1816   -2.0064   -8.9686 C   0  0  0  0  0  0  0  0  0  0  0  0
  -27.2603   -3.1900   -8.6556 O   0  0  0  0  0  0  0  0  0  0  0  0
  -27.3502   -0.9091   -8.0522 N   0  0  0  0  0  0  0  0  0  0  0  0
  -28.1889   -1.0698   -6.7712 S   0  0  0  0  0  0  0  0  0  0  0  0
  -29.5075   -1.6697   -6.8097 O   0  0  0  0  0  0  0  0  0  0  0  0
  -27.1493   -2.0247   -5.6299 C   0  0  0  0  0  0  0  0  0  0  0  0
  -28.0074   -2.7051   -4.5801 C   0  0  0  0  0  0  0  0  0  0  0  0
  -28.1627   -4.1820   -4.7870 C   0  0  0  0  0  0  0  0  0  0  0  0
  -27.3349   -4.8866   -3.8725 O   0  0  0  0  0  0  0  0  0  0  0  0
  -26.4131   -4.6092   -4.0210 H   0  0  0  0  0  0  0  0  0  0  0  0
  -28.3971    0.5531   -5.9777 C   0  0  0  0  0  0  0  0  0  0  0  0
  -29.7286    0.6366   -5.2373 C   0  0  0  0  0  0  0  0  0  0  0  0
  -30.7437    1.4712   -6.0001 C   0  0  0  0  0  0  0  0  0  0  0  0
  -30.1387    2.0363   -7.1544 O   0  0  0  0  0  0  0  0  0  0  0  0
  -29.4112    2.6148   -6.8647 H   0  0  0  0  0  0  0  0  0  0  0  0
 19 20  1  0  0  0
 20 21  1  0  0  0
 20 25  2  0  0  0
 21 22  2  0  0  0
 22 23  1  0  0  0
 23 24  2  0  0  0
 24 15  1  0  0  0
 24 25  1  0  0  0
 15 16  2  0  0  0
 15 17  1  0  0  0
 17  9  1  0  0  0
 17 18  1  0  0  0
  9 10  1  0  0  0
  9 14  2  0  0  0
 10 11  2  0  0  0
 11 12  1  0  0  0
 12 13  2  0  0  0
 13  7  1  0  0  0
 13 14  1  0  0  0
  7  8  3  0  0  0
  8  1  1  0  0  0
  1  2  1  0  0  0
  1  6  2  0  0  0
  2  3  2  0  0  0
  3  4  1  0  0  0
  4  5  2  0  0  0
  5 26  1  0  0  0
  5  6  1  0  0  0
 26 27  2  0  0  0
 26 28  1  0  0  0
 28 29  2  0  0  0
 29 30  2  0  0  0
 29 31  1  0  0  0
 29 36  1  0  0  0
 31 32  1  0  0  0
 32 33  1  0  0  0
 33 34  1  0  0  0
 34 35  1  0  0  0
 36 37  1  0  0  0
 37 38  1  0  0  0
 38 39  1  0  0  0
 39 40  1  0  0  0
M  END
> <minimizedAffinity>
-9.39063

$$$$
