CHEMBL1255013


 41 45  0  0  0  0  0  0  0  0999 V2000
  -18.4782    3.2707  -14.5135 N   0  0  0  0  0  0  0  0  0  0  0  0
  -17.6604    3.4776  -15.6122 C   0  0  0  0  0  0  0  0  0  0  0  0
  -17.9216    3.0925  -16.7475 O   0  0  0  0  0  0  0  0  0  0  0  0
  -16.4745    4.1325  -15.2778 N   0  0  0  0  0  0  0  0  0  0  0  0
  -18.4293    3.9610  -13.7742 H   0  0  0  0  0  0  0  0  0  0  0  0
  -16.1459    3.9037  -14.3499 H   0  0  0  0  0  0  0  0  0  0  0  0
  -21.9493    0.8000  -14.5460 C   0  0  0  0  0  0  0  0  0  0  0  0
  -22.0575    2.1727  -14.3257 C   0  0  0  0  0  0  0  0  0  0  0  0
  -20.9174    2.9826  -14.3081 C   0  0  0  0  0  0  0  0  0  0  0  0
  -19.6438    2.4484  -14.5334 C   0  0  0  0  0  0  0  0  0  0  0  0
  -19.5493    1.0760  -14.8165 C   0  0  0  0  0  0  0  0  0  0  0  0
  -18.0150    0.3441  -15.1433 Cl  0  0  0  0  0  0  0  0  0  0  0  0
  -20.6912    0.2561  -14.8175 C   0  0  0  0  0  0  0  0  0  0  0  0
  -23.0335   -0.0546  -14.5926 O   0  0  0  0  0  0  0  0  0  0  0  0
  -25.8620   -0.9323  -15.4905 C   0  0  0  0  0  0  0  0  0  0  0  0
  -25.8259   -1.2987  -14.0933 N   0  0  0  0  0  0  0  0  0  0  0  0
  -26.8724   -1.8680  -13.4118 C   0  0  0  0  0  0  0  0  0  0  0  0
  -26.4636   -2.0936  -12.1137 C   0  0  0  0  0  0  0  0  0  0  0  0
  -25.1257   -1.6436  -12.0143 C   0  0  0  0  0  0  0  0  0  0  0  0
  -24.3134   -1.6603  -10.9362 N   0  0  0  0  0  0  0  0  0  0  0  0
  -23.0954   -1.1673  -11.1828 C   0  0  0  0  0  0  0  0  0  0  0  0
  -22.6287   -0.6678  -12.3384 N   0  0  0  0  0  0  0  0  0  0  0  0
  -23.4687   -0.6078  -13.3975 C   0  0  0  0  0  0  0  0  0  0  0  0
  -24.7419   -1.1428  -13.2554 C   0  0  0  0  0  0  0  0  0  0  0  0
  -15.4720    4.2397  -16.2786 C   0  0  0  0  0  0  0  0  0  0  0  0
  -14.5280    3.2172  -16.4059 C   0  0  0  0  0  0  0  0  0  0  0  0
  -13.7515    3.1192  -17.5749 C   0  0  0  0  0  0  0  0  0  0  0  0
  -13.7902    4.1726  -18.5053 C   0  0  0  0  0  0  0  0  0  0  0  0
  -14.6350    5.2792  -18.3139 C   0  0  0  0  0  0  0  0  0  0  0  0
  -15.5094    5.2743  -17.2185 C   0  0  0  0  0  0  0  0  0  0  0  0
  -14.6560    6.4394  -19.2775 C   0  0  0  0  0  0  0  0  0  0  0  0
  -13.4880    6.5934  -19.9643 F   0  0  0  0  0  0  0  0  0  0  0  0
  -15.6307    6.3355  -20.2216 F   0  0  0  0  0  0  0  0  0  0  0  0
  -14.8698    7.6308  -18.6490 F   0  0  0  0  0  0  0  0  0  0  0  0
  -13.0175    1.8238  -17.8937 C   0  0  0  0  0  0  0  0  0  0  0  0
  -13.8661    0.7216  -18.3581 N   0  0  0  0  0  0  0  0  0  0  0  0
  -13.3446   -0.6134  -17.9933 C   0  0  0  0  0  0  0  0  0  0  0  0
  -12.1059   -1.0465  -18.7958 C   0  0  0  0  0  0  0  0  0  0  0  0
  -12.3877   -1.0629  -20.1985 O   0  0  0  0  0  0  0  0  0  0  0  0
  -12.8333    0.2188  -20.6524 C   0  0  0  0  0  0  0  0  0  0  0  0
  -14.0284    0.7507  -19.8340 C   0  0  0  0  0  0  0  0  0  0  0  0
 15 16  1  0  0  0
 16 17  1  0  0  0
 16 24  1  0  0  0
 17 18  2  0  0  0
 18 19  1  0  0  0
 19 20  1  0  0  0
 19 24  2  0  0  0
 20 21  2  0  0  0
 21 22  1  0  0  0
 22 23  2  0  0  0
 23 14  1  0  0  0
 23 24  1  0  0  0
 14  7  1  0  0  0
  7  8  1  0  0  0
  7 13  2  0  0  0
  8  9  2  0  0  0
  9 10  1  0  0  0
 10  1  1  0  0  0
 10 11  2  0  0  0
  1  2  1  0  0  0
  1  5  1  0  0  0
  2  3  2  0  0  0
  2  4  1  0  0  0
  4 25  1  0  0  0
  4  6  1  0  0  0
 25 26  1  0  0  0
 25 30  2  0  0  0
 26 27  2  0  0  0
 27 35  1  0  0  0
 27 28  1  0  0  0
 35 36  1  0  0  0
 36 37  1  0  0  0
 36 41  1  0  0  0
 37 38  1  0  0  0
 38 39  1  0  0  0
 39 40  1  0  0  0
 40 41  1  0  0  0
 28 29  2  0  0  0
 29 31  1  0  0  0
 29 30  1  0  0  0
 31 32  1  0  0  0
 31 33  1  0  0  0
 31 34  1  0  0  0
 11 12  1  0  0  0
 11 13  1  0  0  0
M  END
> <minimizedAffinity>
-8.26045

$$$$
