CHEMBL3906467


 38 41  0  0  0  0  0  0  0  0999 V2000
  -27.2583   12.5702  -13.4211 C   0  0  0  0  0  0  0  0  0  0  0  0
  -27.0792   12.6094  -12.0381 C   0  0  0  0  0  0  0  0  0  0  0  0
  -25.7928   12.6129  -11.5027 C   0  0  0  0  0  0  0  0  0  0  0  0
  -25.6379   12.6573  -10.1724 F   0  0  0  0  0  0  0  0  0  0  0  0
  -24.6683   12.5823  -12.3167 C   0  0  0  0  0  0  0  0  0  0  0  0
  -24.8359   12.5241  -13.6977 C   0  0  0  0  0  0  0  0  0  0  0  0
  -26.1297   12.4708  -14.2411 C   0  0  0  0  0  0  0  0  0  0  0  0
  -29.7452   11.2275  -12.7254 O   0  0  0  0  0  0  0  0  0  0  0  0
  -29.6798   12.0086  -13.6659 C   0  0  0  0  0  0  0  0  0  0  0  0
  -28.5204   12.6588  -14.0603 N   0  0  0  0  0  0  0  0  0  0  0  0
  -30.7596   12.3749  -14.4589 N   0  0  0  0  0  0  0  0  0  0  0  0
  -28.6300   13.4204  -14.7123 H   0  0  0  0  0  0  0  0  0  0  0  0
  -30.5511   12.8867  -15.3023 H   0  0  0  0  0  0  0  0  0  0  0  0
  -32.1105   12.0008  -14.2596 C   0  0  0  0  0  0  0  0  0  0  0  0
  -33.1745   12.5271  -14.9940 C   0  0  0  0  0  0  0  0  0  0  0  0
  -34.4769   12.1158  -14.7353 C   0  0  0  0  0  0  0  0  0  0  0  0
  -35.4856   12.6376  -15.4457 F   0  0  0  0  0  0  0  0  0  0  0  0
  -34.7539   11.1743  -13.7563 C   0  0  0  0  0  0  0  0  0  0  0  0
  -33.7067   10.6198  -13.0127 C   0  0  0  0  0  0  0  0  0  0  0  0
  -32.3852   11.0368  -13.2772 C   0  0  0  0  0  0  0  0  0  0  0  0
  -33.9846    9.5938  -11.9449 C   0  0  0  0  0  0  0  0  0  0  0  0
  -32.9006    9.2940  -11.1785 F   0  0  0  0  0  0  0  0  0  0  0  0
  -34.9558    9.9971  -11.0794 F   0  0  0  0  0  0  0  0  0  0  0  0
  -34.4152    8.4109  -12.4638 F   0  0  0  0  0  0  0  0  0  0  0  0
  -23.6923   12.4652  -14.4666 O   0  0  0  0  0  0  0  0  0  0  0  0
  -23.7628   11.8224  -15.7017 C   0  0  0  0  0  0  0  0  0  0  0  0
  -22.9119   12.2793  -16.6868 C   0  0  0  0  0  0  0  0  0  0  0  0
  -22.9942   11.6255  -17.8984 C   0  0  0  0  0  0  0  0  0  0  0  0
  -23.8355   10.6021  -18.0916 N   0  0  0  0  0  0  0  0  0  0  0  0
  -24.6344   10.2568  -17.0831 C   0  0  0  0  0  0  0  0  0  0  0  0
  -24.6515   10.8296  -15.8811 N   0  0  0  0  0  0  0  0  0  0  0  0
  -22.1739   12.0560  -18.9550 N   0  0  0  0  0  0  0  0  0  0  0  0
  -20.8282   11.7571  -19.0554 C   0  0  0  0  0  0  0  0  0  0  0  0
  -20.1528   11.1227  -18.2586 O   0  0  0  0  0  0  0  0  0  0  0  0
  -22.6062   12.5643  -19.7087 H   0  0  0  0  0  0  0  0  0  0  0  0
  -20.1270   12.2378  -20.2835 C   0  0  0  0  0  0  0  0  0  0  0  0
  -19.4441   11.4003  -21.3316 C   0  0  0  0  0  0  0  0  0  0  0  0
  -18.6174   12.1694  -20.3415 C   0  0  0  0  0  0  0  0  0  0  0  0
  8  9  2  0  0  0
  9 10  1  0  0  0
  9 11  1  0  0  0
 10  1  1  0  0  0
 10 12  1  0  0  0
  1  2  1  0  0  0
  1  7  2  0  0  0
  2  3  2  0  0  0
  3  4  1  0  0  0
  3  5  1  0  0  0
  5  6  2  0  0  0
  6 25  1  0  0  0
  6  7  1  0  0  0
 25 26  1  0  0  0
 26 27  1  0  0  0
 26 31  2  0  0  0
 27 28  2  0  0  0
 28 32  1  0  0  0
 28 29  1  0  0  0
 32 33  1  0  0  0
 32 35  1  0  0  0
 33 34  2  0  0  0
 33 36  1  0  0  0
 36 37  1  0  0  0
 36 38  1  0  0  0
 37 38  1  0  0  0
 29 30  2  0  0  0
 30 31  1  0  0  0
 11 14  1  0  0  0
 11 13  1  0  0  0
 14 15  1  0  0  0
 14 20  2  0  0  0
 15 16  2  0  0  0
 16 17  1  0  0  0
 16 18  1  0  0  0
 18 19  2  0  0  0
 19 21  1  0  0  0
 19 20  1  0  0  0
 21 22  1  0  0  0
 21 23  1  0  0  0
 21 24  1  0  0  0
M  END
> <minimizedAffinity>
-5.99015

$$$$
