CHEMBL426602


 34 37  0  0  0  0  0  0  0  0999 V2000
  -17.3882    2.3906  -15.7412 C   0  0  0  0  0  0  0  0  0  0  0  0
  -17.8840    1.1424  -15.3807 C   0  0  0  0  0  0  0  0  0  0  0  0
  -19.1826    1.0358  -14.8704 C   0  0  0  0  0  0  0  0  0  0  0  0
  -19.9653    2.1694  -14.6216 C   0  0  0  0  0  0  0  0  0  0  0  0
  -19.3861    3.4267  -14.8248 C   0  0  0  0  0  0  0  0  0  0  0  0
  -18.1039    3.5356  -15.3842 C   0  0  0  0  0  0  0  0  0  0  0  0
  -21.3269    2.1112  -14.2255 N   0  0  0  0  0  0  0  0  0  0  0  0
  -22.0052    0.9691  -13.8436 C   0  0  0  0  0  0  0  0  0  0  0  0
  -21.4904   -0.1315  -13.6756 O   0  0  0  0  0  0  0  0  0  0  0  0
  -23.3774    1.1793  -13.7135 N   0  0  0  0  0  0  0  0  0  0  0  0
  -21.8362    2.9771  -14.1967 H   0  0  0  0  0  0  0  0  0  0  0  0
  -23.7689    1.8380  -14.3718 H   0  0  0  0  0  0  0  0  0  0  0  0
  -24.2148    0.1002  -13.3280 C   0  0  0  0  0  0  0  0  0  0  0  0
  -24.7613   -0.7699  -14.2841 C   0  0  0  0  0  0  0  0  0  0  0  0
  -25.6783   -1.7555  -13.9134 C   0  0  0  0  0  0  0  0  0  0  0  0
  -26.0552   -1.8751  -12.5798 C   0  0  0  0  0  0  0  0  0  0  0  0
  -25.4846   -1.0322  -11.6308 C   0  0  0  0  0  0  0  0  0  0  0  0
  -25.8707   -1.1330  -10.3517 F   0  0  0  0  0  0  0  0  0  0  0  0
  -24.5475   -0.0630  -11.9849 C   0  0  0  0  0  0  0  0  0  0  0  0
  -16.2485    2.5898  -16.4868 O   0  0  0  0  0  0  0  0  0  0  0  0
  -12.5272    0.4935  -13.4680 C   0  0  0  0  0  0  0  0  0  0  0  0
  -12.2234    1.8341  -13.7720 C   0  0  0  0  0  0  0  0  0  0  0  0
  -13.0369    2.6183  -14.5842 C   0  0  0  0  0  0  0  0  0  0  0  0
  -12.7252    3.9192  -14.7066 N   0  0  0  0  0  0  0  0  0  0  0  0
  -13.5566    4.7108  -15.4111 C   0  0  0  0  0  0  0  0  0  0  0  0
  -14.7209    4.2676  -15.9972 C   0  0  0  0  0  0  0  0  0  0  0  0
  -15.0431    2.9134  -15.8803 C   0  0  0  0  0  0  0  0  0  0  0  0
  -14.1552    2.0364  -15.2044 C   0  0  0  0  0  0  0  0  0  0  0  0
  -14.3001    0.6327  -15.0790 C   0  0  0  0  0  0  0  0  0  0  0  0
  -13.5664   -0.1233  -14.1597 C   0  0  0  0  0  0  0  0  0  0  0  0
  -10.6978   -0.9616  -13.0557 C   0  0  0  0  0  0  0  0  0  0  0  0
  -11.8098   -0.2223  -12.5477 O   0  0  0  0  0  0  0  0  0  0  0  0
  -14.0550   -1.3958  -14.0768 O   0  0  0  0  0  0  0  0  0  0  0  0
  -14.9635   -1.7468  -13.0494 C   0  0  0  0  0  0  0  0  0  0  0  0
 31 32  1  0  0  0
 32 21  1  0  0  0
 21 22  1  0  0  0
 21 30  2  0  0  0
 22 23  2  0  0  0
 23 24  1  0  0  0
 23 28  1  0  0  0
 24 25  2  0  0  0
 25 26  1  0  0  0
 26 27  2  0  0  0
 27 20  1  0  0  0
 27 28  1  0  0  0
 20  1  1  0  0  0
  1  2  1  0  0  0
  1  6  2  0  0  0
  2  3  2  0  0  0
  3  4  1  0  0  0
  4  7  1  0  0  0
  4  5  2  0  0  0
  7  8  1  0  0  0
  7 11  1  0  0  0
  8  9  2  0  0  0
  8 10  1  0  0  0
 10 13  1  0  0  0
 10 12  1  0  0  0
 13 14  1  0  0  0
 13 19  2  0  0  0
 14 15  2  0  0  0
 15 16  1  0  0  0
 16 17  2  0  0  0
 17 18  1  0  0  0
 17 19  1  0  0  0
  5  6  1  0  0  0
 28 29  2  0  0  0
 29 30  1  0  0  0
 30 33  1  0  0  0
 33 34  1  0  0  0
M  END
> <minimizedAffinity>
-8.83839

$$$$
