CHEMBL13983


 33 36  0  0  0  0  0  0  0  0999 V2000
  -14.9804   -3.5103   -9.7218 C   0  0  0  0  0  0  0  0  0  0  0  0
  -14.7955   -3.0475  -11.1203 C   0  0  0  0  0  0  0  0  0  0  0  0
  -15.4759   -1.9398  -11.5456 N   0  0  0  0  0  0  0  0  0  0  0  0
  -15.3911   -1.8045  -12.9015 C   0  0  0  0  0  0  0  0  0  0  0  0
  -14.4416   -2.7224  -13.3435 C   0  0  0  0  0  0  0  0  0  0  0  0
  -13.9425   -2.8480  -14.7485 C   0  0  0  0  0  0  0  0  0  0  0  0
  -14.0465   -3.5205  -12.1956 C   0  0  0  0  0  0  0  0  0  0  0  0
  -16.0397   -1.3613  -10.9307 H   0  0  0  0  0  0  0  0  0  0  0  0
  -16.2047   -0.8808  -13.6057 C   0  0  0  0  0  0  0  0  0  0  0  0
  -15.8588    0.2673  -14.2126 C   0  0  0  0  0  0  0  0  0  0  0  0
  -14.5164    0.9337  -14.4378 C   0  0  0  0  0  0  0  0  0  0  0  0
  -13.4123    0.5407  -14.1061 O   0  0  0  0  0  0  0  0  0  0  0  0
  -14.8033    2.1094  -15.1064 N   0  0  0  0  0  0  0  0  0  0  0  0
  -16.1684    2.2610  -15.3115 C   0  0  0  0  0  0  0  0  0  0  0  0
  -16.8065    3.3247  -15.9159 C   0  0  0  0  0  0  0  0  0  0  0  0
  -18.2014    3.2779  -15.9831 C   0  0  0  0  0  0  0  0  0  0  0  0
  -18.9024    2.1865  -15.4506 C   0  0  0  0  0  0  0  0  0  0  0  0
  -20.2406    2.1740  -15.5144 F   0  0  0  0  0  0  0  0  0  0  0  0
  -18.2468    1.1175  -14.8484 C   0  0  0  0  0  0  0  0  0  0  0  0
  -16.8656    1.1664  -14.7902 C   0  0  0  0  0  0  0  0  0  0  0  0
  -14.0864    2.7646  -15.3797 H   0  0  0  0  0  0  0  0  0  0  0  0
  -13.0833   -4.6286  -12.1381 C   0  0  0  0  0  0  0  0  0  0  0  0
  -11.8895   -4.4710  -11.9111 O   0  0  0  0  0  0  0  0  0  0  0  0
  -13.6596   -5.8639  -12.3578 N   0  0  0  0  0  0  0  0  0  0  0  0
  -14.6632   -5.9102  -12.3233 H   0  0  0  0  0  0  0  0  0  0  0  0
  -12.9373   -7.1105  -12.4815 C   0  0  0  0  0  0  0  0  0  0  0  0
  -13.8411   -8.2173  -13.0607 C   0  0  0  0  0  0  0  0  0  0  0  0
  -13.1892   -8.9293  -14.2478 C   0  0  0  0  0  0  0  0  0  0  0  0
  -12.9722   -7.9662  -15.4159 C   0  0  0  0  0  0  0  0  0  0  0  0
  -14.1651   -7.1927  -15.8019 N   0  0  0  0  0  0  0  0  0  0  0  0
  -13.7526   -6.0703  -16.6557 C   0  0  0  0  0  0  0  0  0  0  0  0
  -14.9834   -6.6766  -14.6964 C   0  0  0  0  0  0  0  0  0  0  0  0
  -15.1832   -7.6757  -13.5592 C   0  0  0  0  0  0  0  0  0  0  0  0
  1  2  1  0  0  0
  2  3  1  0  0  0
  2  7  2  0  0  0
  3  4  1  0  0  0
  3  8  1  0  0  0
  4  9  1  0  0  0
  4  5  2  0  0  0
  9 10  2  0  0  0
 10 11  1  0  0  0
 10 20  1  0  0  0
 11 12  2  0  0  0
 11 13  1  0  0  0
 13 14  1  0  0  0
 13 21  1  0  0  0
 14 15  1  0  0  0
 14 20  2  0  0  0
 15 16  2  0  0  0
 16 17  1  0  0  0
 17 18  1  0  0  0
 17 19  2  0  0  0
 19 20  1  0  0  0
  5  6  1  0  0  0
  5  7  1  0  0  0
  7 22  1  0  0  0
 22 23  2  0  0  0
 22 24  1  0  0  0
 24 26  1  0  0  0
 24 25  1  0  0  0
 26 27  1  0  0  0
 27 28  1  0  0  0
 27 33  1  0  0  0
 28 29  1  0  0  0
 29 30  1  0  0  0
 30 31  1  0  0  0
 30 32  1  0  0  0
 32 33  1  0  0  0
M  END
> <minimizedAffinity>
-8.25845

$$$$
