CHEMBL3656061


 41 44  0  0  0  0  0  0  0  0999 V2000
  -25.3416    9.8335  -16.5404 O   0  0  0  0  0  0  0  0  0  0  0  0
  -29.2496   11.0113  -15.5975 C   0  0  0  0  0  0  0  0  0  0  0  0
  -28.1802   11.5188  -14.8517 C   0  0  0  0  0  0  0  0  0  0  0  0
  -26.8678   11.1598  -15.1579 C   0  0  0  0  0  0  0  0  0  0  0  0
  -26.6117   10.2353  -16.1716 C   0  0  0  0  0  0  0  0  0  0  0  0
  -27.6807    9.7186  -16.9133 C   0  0  0  0  0  0  0  0  0  0  0  0
  -29.0020   10.0858  -16.6126 C   0  0  0  0  0  0  0  0  0  0  0  0
  -32.5392   11.5445  -14.1731 N   0  0  0  0  0  0  0  0  0  0  0  0
  -31.2407   11.0721  -14.2378 C   0  0  0  0  0  0  0  0  0  0  0  0
  -30.6895   10.3992  -13.3752 O   0  0  0  0  0  0  0  0  0  0  0  0
  -30.5626   11.5055  -15.3782 N   0  0  0  0  0  0  0  0  0  0  0  0
  -32.8115   12.2350  -14.8562 H   0  0  0  0  0  0  0  0  0  0  0  0
  -30.7081   12.4821  -15.5934 H   0  0  0  0  0  0  0  0  0  0  0  0
  -33.9208   12.5528   -9.5239 C   0  0  0  0  0  0  0  0  0  0  0  0
  -34.1035   11.7724  -10.7945 C   0  0  0  0  0  0  0  0  0  0  0  0
  -35.0893   10.7829  -10.8624 C   0  0  0  0  0  0  0  0  0  0  0  0
  -35.2835   10.0791  -12.0434 C   0  0  0  0  0  0  0  0  0  0  0  0
  -34.4878   10.3438  -13.1553 C   0  0  0  0  0  0  0  0  0  0  0  0
  -34.8389    9.7211  -14.2865 F   0  0  0  0  0  0  0  0  0  0  0  0
  -33.4463   11.2846  -13.1063 C   0  0  0  0  0  0  0  0  0  0  0  0
  -33.2885   12.0211  -11.9183 C   0  0  0  0  0  0  0  0  0  0  0  0
  -24.3503   10.7804  -16.6883 C   0  0  0  0  0  0  0  0  0  0  0  0
  -24.0433   11.7279  -15.7160 C   0  0  0  0  0  0  0  0  0  0  0  0
  -23.0682   12.6590  -16.0005 C   0  0  0  0  0  0  0  0  0  0  0  0
  -22.3451   12.6577  -17.1373 N   0  0  0  0  0  0  0  0  0  0  0  0
  -22.5901   11.6849  -18.0489 C   0  0  0  0  0  0  0  0  0  0  0  0
  -23.5914   10.7323  -17.8608 C   0  0  0  0  0  0  0  0  0  0  0  0
  -21.7049   11.7204  -19.2218 C   0  0  0  0  0  0  0  0  0  0  0  0
  -21.9403   12.4745  -20.3491 C   0  0  0  0  0  0  0  0  0  0  0  0
  -20.7387   12.2833  -21.5472 S   0  0  0  0  0  0  0  0  0  0  0  0
  -19.8522   11.1700  -20.5873 C   0  0  0  0  0  0  0  0  0  0  0  0
  -20.4830   10.9659  -19.3759 C   0  0  0  0  0  0  0  0  0  0  0  0
  -18.6081   10.5636  -21.0585 C   0  0  0  0  0  0  0  0  0  0  0  0
  -18.5223    9.4008  -21.4416 O   0  0  0  0  0  0  0  0  0  0  0  0
  -17.5112   11.3871  -21.0523 N   0  0  0  0  0  0  0  0  0  0  0  0
  -17.6194   12.3454  -20.7276 H   0  0  0  0  0  0  0  0  0  0  0  0
  -16.1999   10.9644  -21.4853 C   0  0  0  0  0  0  0  0  0  0  0  0
  -15.3319   10.6938  -20.2633 C   0  0  0  0  0  0  0  0  0  0  0  0
  -14.5927   11.5238  -19.7499 O   0  0  0  0  0  0  0  0  0  0  0  0
  -15.4482    9.4336  -19.7839 O   0  0  0  0  0  0  0  0  0  0  0  0
  -16.0703    8.8718  -20.2819 H   0  0  0  0  0  0  0  0  0  0  0  0
 14 15  1  0  0  0
 15 16  1  0  0  0
 15 21  2  0  0  0
 16 17  2  0  0  0
 17 18  1  0  0  0
 18 19  1  0  0  0
 18 20  2  0  0  0
 20  8  1  0  0  0
 20 21  1  0  0  0
  8  9  1  0  0  0
  8 12  1  0  0  0
  9 10  2  0  0  0
  9 11  1  0  0  0
 11  2  1  0  0  0
 11 13  1  0  0  0
  2  3  1  0  0  0
  2  7  2  0  0  0
  3  4  2  0  0  0
  4  5  1  0  0  0
  5  1  1  0  0  0
  5  6  2  0  0  0
  1 22  1  0  0  0
 22 23  1  0  0  0
 22 27  2  0  0  0
 23 24  2  0  0  0
 24 25  1  0  0  0
 25 26  2  0  0  0
 26 28  1  0  0  0
 26 27  1  0  0  0
 28 29  2  0  0  0
 28 32  1  0  0  0
 29 30  1  0  0  0
 30 31  1  0  0  0
 31 33  1  0  0  0
 31 32  2  0  0  0
 33 34  2  0  0  0
 33 35  1  0  0  0
 35 37  1  0  0  0
 35 36  1  0  0  0
 37 38  1  0  0  0
 38 39  2  0  0  0
 38 40  1  0  0  0
 40 41  1  0  0  0
  6  7  1  0  0  0
M  END
> <minimizedAffinity>
-6.08144

$$$$
