CHEMBL3944202


 33 36  0  0  0  0  0  0  0  0999 V2000
  -29.8117   -6.3750   -5.4332 C   0  0  0  0  0  0  0  0  0  0  0  0
  -28.6005   -7.0408   -5.1970 C   0  0  0  0  0  0  0  0  0  0  0  0
  -28.3216   -8.2862   -5.7770 C   0  0  0  0  0  0  0  0  0  0  0  0
  -29.2785   -8.9172   -6.5717 C   0  0  0  0  0  0  0  0  0  0  0  0
  -30.4333   -8.1744   -6.9186 C   0  0  0  0  0  0  0  0  0  0  0  0
  -30.7226   -6.9399   -6.3156 C   0  0  0  0  0  0  0  0  0  0  0  0
  -29.3042  -10.4431   -6.6827 C   0  0  0  0  0  0  0  0  0  0  0  0
  -28.0983  -11.1465   -6.9039 C   0  0  0  0  0  0  0  0  0  0  0  0
  -27.9182  -10.9159   -8.3196 C   0  0  0  0  0  0  0  0  0  0  0  0
  -26.8172  -10.6576   -9.1408 C   0  0  0  0  0  0  0  0  0  0  0  0
  -27.0591  -10.2743  -10.4679 C   0  0  0  0  0  0  0  0  0  0  0  0
  -28.3531  -10.2537  -10.9960 C   0  0  0  0  0  0  0  0  0  0  0  0
  -29.4613  -10.5746  -10.2101 C   0  0  0  0  0  0  0  0  0  0  0  0
  -29.2070  -10.8158   -8.8597 C   0  0  0  0  0  0  0  0  0  0  0  0
  -30.0345  -11.0158   -7.7659 N   0  0  0  0  0  0  0  0  0  0  0  0
  -31.3137  -11.5879   -7.7879 C   0  0  0  0  0  0  0  0  0  0  0  0
  -31.5225  -12.4308   -6.7326 N   0  0  0  0  0  0  0  0  0  0  0  0
  -32.0538  -11.4747   -8.7515 O   0  0  0  0  0  0  0  0  0  0  0  0
  -30.7306  -12.7849   -6.2100 H   0  0  0  0  0  0  0  0  0  0  0  0
  -32.2827  -13.0866   -6.8762 H   0  0  0  0  0  0  0  0  0  0  0  0
  -29.8122   -2.8644   -4.4915 N   0  0  0  0  0  0  0  0  0  0  0  0
  -29.5328   -3.9788   -5.2479 C   0  0  0  0  0  0  0  0  0  0  0  0
  -28.8603   -3.9753   -6.2873 O   0  0  0  0  0  0  0  0  0  0  0  0
  -30.1099   -5.1524   -4.7789 N   0  0  0  0  0  0  0  0  0  0  0  0
  -30.4398   -2.9573   -3.7108 H   0  0  0  0  0  0  0  0  0  0  0  0
  -31.0169   -5.0613   -4.3544 H   0  0  0  0  0  0  0  0  0  0  0  0
  -30.7445    1.6458   -6.3739 C   0  0  0  0  0  0  0  0  0  0  0  0
  -29.8010    0.6587   -5.7515 C   0  0  0  0  0  0  0  0  0  0  0  0
  -28.4558    1.0063   -5.5811 C   0  0  0  0  0  0  0  0  0  0  0  0
  -27.5714    0.1080   -5.0091 C   0  0  0  0  0  0  0  0  0  0  0  0
  -28.0208   -1.1558   -4.6221 C   0  0  0  0  0  0  0  0  0  0  0  0
  -29.3486   -1.5521   -4.8089 C   0  0  0  0  0  0  0  0  0  0  0  0
  -30.2470   -0.6177   -5.3499 C   0  0  0  0  0  0  0  0  0  0  0  0
 27 28  1  0  0  0
 28 29  1  0  0  0
 28 33  2  0  0  0
 29 30  2  0  0  0
 30 31  1  0  0  0
 31 32  2  0  0  0
 32 21  1  0  0  0
 32 33  1  0  0  0
 21 22  1  0  0  0
 21 25  1  0  0  0
 22 23  2  0  0  0
 22 24  1  0  0  0
 24  1  1  0  0  0
 24 26  1  0  0  0
  1  2  1  0  0  0
  1  6  2  0  0  0
  2  3  2  0  0  0
  3  4  1  0  0  0
  4  7  1  0  0  0
  4  5  2  0  0  0
  7  8  2  0  0  0
  7 15  1  0  0  0
  8  9  1  0  0  0
  9 10  1  0  0  0
  9 14  2  0  0  0
 10 11  2  0  0  0
 11 12  1  0  0  0
 12 13  2  0  0  0
 13 14  1  0  0  0
 14 15  1  0  0  0
 15 16  1  0  0  0
 16 17  1  0  0  0
 16 18  2  0  0  0
 17 19  1  0  0  0
 17 20  1  0  0  0
  5  6  1  0  0  0
M  END
> <minimizedAffinity>
-9.71831

$$$$
