CHEMBL191372


 40 42  0  0  0  0  0  0  0  0999 V2000
  -30.8119   -7.9989   -6.3742 C   0  0  0  0  0  0  0  0  0  0  0  0
  -31.1700   -6.7890   -7.2479 C   0  0  0  0  0  0  0  0  0  0  0  0
  -30.2498   -5.6151   -7.1212 C   0  0  0  0  0  0  0  0  0  0  0  0
  -30.4215   -4.4879   -7.9076 C   0  0  0  0  0  0  0  0  0  0  0  0
  -29.6637   -3.3718   -7.8136 N   0  0  0  0  0  0  0  0  0  0  0  0
  -28.6707   -3.3553   -6.9059 C   0  0  0  0  0  0  0  0  0  0  0  0
  -28.4241   -4.4464   -6.0805 C   0  0  0  0  0  0  0  0  0  0  0  0
  -29.2201   -5.5903   -6.1948 C   0  0  0  0  0  0  0  0  0  0  0  0
  -28.9517   -6.6627   -5.3424 N   0  0  0  0  0  0  0  0  0  0  0  0
  -29.6739   -7.7350   -5.3906 C   0  0  0  0  0  0  0  0  0  0  0  0
  -31.0739  -11.4060   -8.1049 C   0  0  0  0  0  0  0  0  0  0  0  0
  -30.0583  -11.3153   -9.0608 C   0  0  0  0  0  0  0  0  0  0  0  0
  -29.2715  -10.1662   -9.1462 C   0  0  0  0  0  0  0  0  0  0  0  0
  -29.4926   -9.1140   -8.2562 C   0  0  0  0  0  0  0  0  0  0  0  0
  -30.5010   -9.1864   -7.2822 C   0  0  0  0  0  0  0  0  0  0  0  0
  -31.2891  -10.3452   -7.2198 C   0  0  0  0  0  0  0  0  0  0  0  0
  -33.0254  -12.2739   -7.0646 C   0  0  0  0  0  0  0  0  0  0  0  0
  -31.9257  -12.4653   -7.9466 O   0  0  0  0  0  0  0  0  0  0  0  0
  -28.2787   -9.9383  -10.0575 O   0  0  0  0  0  0  0  0  0  0  0  0
  -27.5238  -11.0659  -10.4815 C   0  0  0  0  0  0  0  0  0  0  0  0
  -29.3878   -8.7966   -4.5457 N   0  0  0  0  0  0  0  0  0  0  0  0
  -28.2879   -9.6255   -4.5302 C   0  0  0  0  0  0  0  0  0  0  0  0
  -28.1772  -10.4675   -3.6379 O   0  0  0  0  0  0  0  0  0  0  0  0
  -27.4414   -9.4863   -5.5892 N   0  0  0  0  0  0  0  0  0  0  0  0
  -30.0871   -9.0926   -3.8777 H   0  0  0  0  0  0  0  0  0  0  0  0
  -27.5926   -8.6374   -6.1302 H   0  0  0  0  0  0  0  0  0  0  0  0
  -26.2376  -10.2728   -5.8558 C   0  0  0  0  0  0  0  0  0  0  0  0
  -26.4709  -11.7583   -5.5383 C   0  0  0  0  0  0  0  0  0  0  0  0
  -25.9038  -10.1471   -7.3543 C   0  0  0  0  0  0  0  0  0  0  0  0
  -25.0486   -9.7369   -5.0456 C   0  0  0  0  0  0  0  0  0  0  0  0
  -27.9274   -2.1595   -6.7397 N   0  0  0  0  0  0  0  0  0  0  0  0
  -27.5075   -1.3455   -7.7895 C   0  0  0  0  0  0  0  0  0  0  0  0
  -27.8086   -1.6977   -9.2274 C   0  0  0  0  0  0  0  0  0  0  0  0
  -26.9154   -0.2784   -7.5783 O   0  0  0  0  0  0  0  0  0  0  0  0
  -27.7772   -1.5757   -5.3992 C   0  0  0  0  0  0  0  0  0  0  0  0
  -28.9556   -0.8164   -4.7734 C   0  0  0  0  0  0  0  0  0  0  0  0
  -28.8650    0.7056   -4.9291 C   0  0  0  0  0  0  0  0  0  0  0  0
  -29.8440    1.2742   -5.9511 C   0  0  0  0  0  0  0  0  0  0  0  0
  -29.1323    1.7461   -7.0879 O   0  0  0  0  0  0  0  0  0  0  0  0
  -28.5842    2.4961   -6.8002 H   0  0  0  0  0  0  0  0  0  0  0  0
 17 18  1  0  0  0
 18 11  1  0  0  0
 11 12  1  0  0  0
 11 16  2  0  0  0
 12 13  2  0  0  0
 13 19  1  0  0  0
 13 14  1  0  0  0
 19 20  1  0  0  0
 14 15  2  0  0  0
 15  1  1  0  0  0
 15 16  1  0  0  0
  1  2  1  0  0  0
  1 10  1  0  0  0
  2  3  1  0  0  0
  3  4  1  0  0  0
  3  8  2  0  0  0
  4  5  2  0  0  0
  5  6  1  0  0  0
  6 31  1  0  0  0
  6  7  2  0  0  0
 31 35  1  0  0  0
 31 32  1  0  0  0
 35 36  1  0  0  0
 36 37  1  0  0  0
 37 38  1  0  0  0
 38 39  1  0  0  0
 39 40  1  0  0  0
 32 33  1  0  0  0
 32 34  2  0  0  0
  7  8  1  0  0  0
  8  9  1  0  0  0
  9 10  2  0  0  0
 10 21  1  0  0  0
 21 22  1  0  0  0
 21 25  1  0  0  0
 22 23  2  0  0  0
 22 24  1  0  0  0
 24 27  1  0  0  0
 24 26  1  0  0  0
 27 28  1  0  0  0
 27 29  1  0  0  0
 27 30  1  0  0  0
M  END
> <minimizedAffinity>
-7.42212

$$$$
