CHEMBL1807467


 41 45  0  0  0  0  0  0  0  0999 V2000
  -27.0028   -1.6451   -9.4364 C   0  0  0  0  0  0  0  0  0  0  0  0
  -27.1901   -1.5560   -8.0793 C   0  0  0  0  0  0  0  0  0  0  0  0
  -28.3304   -2.3478   -7.7811 C   0  0  0  0  0  0  0  0  0  0  0  0
  -28.8387   -2.8760   -8.9062 N   0  0  0  0  0  0  0  0  0  0  0  0
  -28.0274   -2.4369   -9.8818 N   0  0  0  0  0  0  0  0  0  0  0  0
  -28.2215   -2.7413  -10.8280 H   0  0  0  0  0  0  0  0  0  0  0  0
  -28.9312   -2.5662   -6.4648 C   0  0  0  0  0  0  0  0  0  0  0  0
  -29.0575   -1.5068   -5.5512 C   0  0  0  0  0  0  0  0  0  0  0  0
  -29.6835   -1.7015   -4.3184 C   0  0  0  0  0  0  0  0  0  0  0  0
  -30.1975   -2.9543   -3.9920 C   0  0  0  0  0  0  0  0  0  0  0  0
  -30.0559   -4.0168   -4.8829 C   0  0  0  0  0  0  0  0  0  0  0  0
  -29.4206   -3.8315   -6.1109 C   0  0  0  0  0  0  0  0  0  0  0  0
  -30.5974   -5.2857   -4.5446 N   0  0  0  0  0  0  0  0  0  0  0  0
  -31.4374   -5.3074   -3.9749 H   0  0  0  0  0  0  0  0  0  0  0  0
  -29.5493   -6.5652   -4.2142 S   0  0  0  0  0  0  0  0  0  0  0  0
  -28.2169   -6.0001   -4.1734 O   0  0  0  0  0  0  0  0  0  0  0  0
  -30.0661   -7.3467   -3.1061 O   0  0  0  0  0  0  0  0  0  0  0  0
  -29.6425   -7.5712   -5.6795 C   0  0  0  0  0  0  0  0  0  0  0  0
  -30.8181   -7.5700   -6.4411 C   0  0  0  0  0  0  0  0  0  0  0  0
  -30.8771   -8.3112   -7.6221 C   0  0  0  0  0  0  0  0  0  0  0  0
  -29.7648   -9.0426   -8.0408 C   0  0  0  0  0  0  0  0  0  0  0  0
  -28.5941   -9.0289   -7.2802 C   0  0  0  0  0  0  0  0  0  0  0  0
  -27.2296   -9.9359   -7.8061 Cl  0  0  0  0  0  0  0  0  0  0  0  0
  -28.5200   -8.2887   -6.1019 C   0  0  0  0  0  0  0  0  0  0  0  0
  -25.6008   -1.5973  -11.4833 C   0  0  0  0  0  0  0  0  0  0  0  0
  -26.1188   -2.6046  -11.9399 O   0  0  0  0  0  0  0  0  0  0  0  0
  -26.0192   -1.0464  -10.2182 N   0  0  0  0  0  0  0  0  0  0  0  0
  -25.5865   -0.2043   -9.8720 H   0  0  0  0  0  0  0  0  0  0  0  0
  -22.4485    0.5239  -13.5236 C   0  0  0  0  0  0  0  0  0  0  0  0
  -22.5794   -0.8699  -13.6493 C   0  0  0  0  0  0  0  0  0  0  0  0
  -23.5952   -1.5867  -13.0085 C   0  0  0  0  0  0  0  0  0  0  0  0
  -24.5154   -0.9059  -12.2149 C   0  0  0  0  0  0  0  0  0  0  0  0
  -24.4000    0.4806  -12.0622 C   0  0  0  0  0  0  0  0  0  0  0  0
  -23.3840    1.1825  -12.7179 C   0  0  0  0  0  0  0  0  0  0  0  0
  -17.8667    3.1732  -15.2613 C   0  0  0  0  0  0  0  0  0  0  0  0
  -19.2146    2.6202  -15.3673 N   0  0  0  0  0  0  0  0  0  0  0  0
  -19.1955    1.1518  -15.1700 C   0  0  0  0  0  0  0  0  0  0  0  0
  -20.6111    0.5222  -15.2215 C   0  0  0  0  0  0  0  0  0  0  0  0
  -21.4643    1.1876  -14.2230 N   0  0  0  0  0  0  0  0  0  0  0  0
  -21.5377    2.6493  -14.4090 C   0  0  0  0  0  0  0  0  0  0  0  0
  -20.1108    3.2407  -14.3653 C   0  0  0  0  0  0  0  0  0  0  0  0
 35 36  1  0  0  0
 36 37  1  0  0  0
 36 41  1  0  0  0
 37 38  1  0  0  0
 38 39  1  0  0  0
 39 29  1  0  0  0
 39 40  1  0  0  0
 29 30  1  0  0  0
 29 34  2  0  0  0
 30 31  2  0  0  0
 31 32  1  0  0  0
 32 25  1  0  0  0
 32 33  2  0  0  0
 25 26  2  0  0  0
 25 27  1  0  0  0
 27  1  1  0  0  0
 27 28  1  0  0  0
  1  2  2  0  0  0
  1  5  1  0  0  0
  2  3  1  0  0  0
  3  7  1  0  0  0
  3  4  2  0  0  0
  7  8  1  0  0  0
  7 12  2  0  0  0
  8  9  2  0  0  0
  9 10  1  0  0  0
 10 11  2  0  0  0
 11 13  1  0  0  0
 11 12  1  0  0  0
 13 15  1  0  0  0
 13 14  1  0  0  0
 15 16  2  0  0  0
 15 17  2  0  0  0
 15 18  1  0  0  0
 18 19  1  0  0  0
 18 24  2  0  0  0
 19 20  2  0  0  0
 20 21  1  0  0  0
 21 22  2  0  0  0
 22 23  1  0  0  0
 22 24  1  0  0  0
  4  5  1  0  0  0
  5  6  1  0  0  0
 33 34  1  0  0  0
 40 41  1  0  0  0
M  END
> <minimizedAffinity>
-10.86060

$$$$
