CHEMBL3133754


 43 47  0  0  0  0  0  0  0  0999 V2000
  -27.9681   -2.0045   -6.7934 C   0  0  0  0  0  0  0  0  0  0  0  0
  -28.0278   -2.6313   -5.5415 C   0  0  0  0  0  0  0  0  0  0  0  0
  -28.6455   -3.8534   -5.3557 C   0  0  0  0  0  0  0  0  0  0  0  0
  -28.7132   -4.3225   -4.1092 N   0  0  0  0  0  0  0  0  0  0  0  0
  -29.3457   -5.4825   -3.9417 C   0  0  0  0  0  0  0  0  0  0  0  0
  -29.8850   -6.2197   -4.9094 N   0  0  0  0  0  0  0  0  0  0  0  0
  -29.7987   -5.7474   -6.1705 C   0  0  0  0  0  0  0  0  0  0  0  0
  -29.1907   -4.5138   -6.4615 C   0  0  0  0  0  0  0  0  0  0  0  0
  -29.0657   -3.9252   -7.7479 C   0  0  0  0  0  0  0  0  0  0  0  0
  -28.4413   -2.6832   -7.9161 C   0  0  0  0  0  0  0  0  0  0  0  0
  -28.4206    0.2997   -6.5973 C   0  0  0  0  0  0  0  0  0  0  0  0
  -27.4860   -0.7277   -6.9382 O   0  0  0  0  0  0  0  0  0  0  0  0
  -30.3564   -6.5340   -7.2144 N   0  0  0  0  0  0  0  0  0  0  0  0
  -31.3672   -6.5202   -7.1395 H   0  0  0  0  0  0  0  0  0  0  0  0
  -29.8679   -7.8151   -7.5745 C   0  0  0  0  0  0  0  0  0  0  0  0
  -30.7573   -8.8265   -7.9400 C   0  0  0  0  0  0  0  0  0  0  0  0
  -30.2858  -10.1067   -8.2251 C   0  0  0  0  0  0  0  0  0  0  0  0
  -28.9151  -10.3690   -8.2032 C   0  0  0  0  0  0  0  0  0  0  0  0
  -27.9986   -9.3465   -7.9528 C   0  0  0  0  0  0  0  0  0  0  0  0
  -28.4830   -8.0778   -7.6263 C   0  0  0  0  0  0  0  0  0  0  0  0
  -26.5972   -9.5477   -7.9887 N   0  0  0  0  0  0  0  0  0  0  0  0
  -25.8937  -10.2673   -7.0415 C   0  0  0  0  0  0  0  0  0  0  0  0
  -26.4122  -10.9333   -6.1523 O   0  0  0  0  0  0  0  0  0  0  0  0
  -24.5233  -10.1245   -7.1947 N   0  0  0  0  0  0  0  0  0  0  0  0
  -26.1399   -9.4380   -8.8818 H   0  0  0  0  0  0  0  0  0  0  0  0
  -24.2387   -9.2211   -7.5403 H   0  0  0  0  0  0  0  0  0  0  0  0
  -23.6216  -10.7854   -6.3269 C   0  0  0  0  0  0  0  0  0  0  0  0
  -22.6197  -11.5830   -6.8791 C   0  0  0  0  0  0  0  0  0  0  0  0
  -21.6677  -12.1780   -6.0483 C   0  0  0  0  0  0  0  0  0  0  0  0
  -21.7425  -12.0198   -4.6621 C   0  0  0  0  0  0  0  0  0  0  0  0
  -22.7662  -11.2565   -4.0931 C   0  0  0  0  0  0  0  0  0  0  0  0
  -22.8745  -11.0886   -2.6062 C   0  0  0  0  0  0  0  0  0  0  0  0
  -23.6999  -10.6393   -4.9363 C   0  0  0  0  0  0  0  0  0  0  0  0
  -28.4377   -2.2179   -9.2027 O   0  0  0  0  0  0  0  0  0  0  0  0
  -27.1551   -2.0932   -9.8296 C   0  0  0  0  0  0  0  0  0  0  0  0
  -27.3441   -1.3730  -11.1730 C   0  0  0  0  0  0  0  0  0  0  0  0
  -26.0660   -1.4649  -12.0205 C   0  0  0  0  0  0  0  0  0  0  0  0
  -24.8640   -0.8768  -11.4030 N   0  0  0  0  0  0  0  0  0  0  0  0
  -24.3602    0.3388  -12.0820 C   0  0  0  0  0  0  0  0  0  0  0  0
  -23.6562    0.0900  -13.4298 C   0  0  0  0  0  0  0  0  0  0  0  0
  -22.6235   -0.8985  -13.3266 O   0  0  0  0  0  0  0  0  0  0  0  0
  -23.1382   -2.1163  -12.7767 C   0  0  0  0  0  0  0  0  0  0  0  0
  -23.7565   -1.8677  -11.3894 C   0  0  0  0  0  0  0  0  0  0  0  0
 11 12  1  0  0  0
 12  1  1  0  0  0
  1  2  1  0  0  0
  1 10  2  0  0  0
  2  3  2  0  0  0
  3  4  1  0  0  0
  3  8  1  0  0  0
  4  5  2  0  0  0
  5  6  1  0  0  0
  6  7  2  0  0  0
  7 13  1  0  0  0
  7  8  1  0  0  0
 13 15  1  0  0  0
 13 14  1  0  0  0
 15 16  1  0  0  0
 15 20  2  0  0  0
 16 17  2  0  0  0
 17 18  1  0  0  0
 18 19  2  0  0  0
 19 21  1  0  0  0
 19 20  1  0  0  0
 21 22  1  0  0  0
 21 25  1  0  0  0
 22 23  2  0  0  0
 22 24  1  0  0  0
 24 27  1  0  0  0
 24 26  1  0  0  0
 27 28  1  0  0  0
 27 33  2  0  0  0
 28 29  2  0  0  0
 29 30  1  0  0  0
 30 31  2  0  0  0
 31 32  1  0  0  0
 31 33  1  0  0  0
  8  9  2  0  0  0
  9 10  1  0  0  0
 10 34  1  0  0  0
 34 35  1  0  0  0
 35 36  1  0  0  0
 36 37  1  0  0  0
 37 38  1  0  0  0
 38 39  1  0  0  0
 38 43  1  0  0  0
 39 40  1  0  0  0
 40 41  1  0  0  0
 41 42  1  0  0  0
 42 43  1  0  0  0
M  END
> <minimizedAffinity>
-9.71004

$$$$
