CHEMBL1241768


 26 29  0  0  0  0  0  0  0  0999 V2000
  -32.5378   -8.0859   -6.2710 N   0  0  0  0  0  0  0  0  0  0  0  0
  -32.0599   -9.0633   -7.1326 C   0  0  0  0  0  0  0  0  0  0  0  0
  -32.8397  -10.1571   -7.2691 N   0  0  0  0  0  0  0  0  0  0  0  0
  -32.4322  -11.1490   -8.0817 C   0  0  0  0  0  0  0  0  0  0  0  0
  -31.3168  -11.1962   -8.8232 N   0  0  0  0  0  0  0  0  0  0  0  0
  -30.5663  -10.0925   -8.6546 C   0  0  0  0  0  0  0  0  0  0  0  0
  -30.8473   -9.0081   -7.8387 C   0  0  0  0  0  0  0  0  0  0  0  0
  -29.7080   -8.1524   -7.9762 C   0  0  0  0  0  0  0  0  0  0  0  0
  -28.8289   -8.6541   -8.8648 N   0  0  0  0  0  0  0  0  0  0  0  0
  -29.3525   -9.8393   -9.2344 N   0  0  0  0  0  0  0  0  0  0  0  0
  -33.5081   -8.2562   -6.0289 H   0  0  0  0  0  0  0  0  0  0  0  0
  -32.3049   -7.1319   -6.5138 H   0  0  0  0  0  0  0  0  0  0  0  0
  -29.3837   -6.9021   -7.2819 C   0  0  0  0  0  0  0  0  0  0  0  0
  -29.8788   -5.6736   -7.7431 C   0  0  0  0  0  0  0  0  0  0  0  0
  -29.5745   -4.4795   -7.0829 C   0  0  0  0  0  0  0  0  0  0  0  0
  -28.8168   -4.5103   -5.9161 C   0  0  0  0  0  0  0  0  0  0  0  0
  -28.4716   -3.0389   -5.0886 Cl  0  0  0  0  0  0  0  0  0  0  0  0
  -28.3583   -5.7305   -5.4191 C   0  0  0  0  0  0  0  0  0  0  0  0
  -27.6521   -5.8150   -4.2503 O   0  0  0  0  0  0  0  0  0  0  0  0
  -28.6259   -6.9185   -6.0990 C   0  0  0  0  0  0  0  0  0  0  0  0
  -27.6248   -4.9195   -3.8647 H   0  0  0  0  0  0  0  0  0  0  0  0
  -28.6123  -10.7633  -10.0790 C   0  0  0  0  0  0  0  0  0  0  0  0
  -27.7318  -11.7468   -9.3296 C   0  0  0  0  0  0  0  0  0  0  0  0
  -26.3953  -11.0378   -9.2673 C   0  0  0  0  0  0  0  0  0  0  0  0
  -26.3033  -10.2243  -10.4449 O   0  0  0  0  0  0  0  0  0  0  0  0
  -27.6226  -10.0600  -10.9934 C   0  0  0  0  0  0  0  0  0  0  0  0
  1  2  1  0  0  0
  1 11  1  0  0  0
  1 12  1  0  0  0
  2  3  1  0  0  0
  2  7  2  0  0  0
  3  4  2  0  0  0
  4  5  1  0  0  0
  5  6  2  0  0  0
  6  7  1  0  0  0
  6 10  1  0  0  0
  7  8  1  0  0  0
  8 13  1  0  0  0
  8  9  2  0  0  0
 13 14  1  0  0  0
 13 20  2  0  0  0
 14 15  2  0  0  0
 15 16  1  0  0  0
 16 17  1  0  0  0
 16 18  2  0  0  0
 18 19  1  0  0  0
 18 20  1  0  0  0
 19 21  1  0  0  0
  9 10  1  0  0  0
 10 22  1  0  0  0
 22 23  1  0  0  0
 22 26  1  0  0  0
 23 24  1  0  0  0
 24 25  1  0  0  0
 25 26  1  0  0  0
M  END
> <minimizedAffinity>
-7.67399

$$$$
