CHEMBL460989


 32 37  0  0  0  0  0  0  0  0999 V2000
  -13.0467   -3.7848   -8.9979 C   0  0  0  0  0  0  0  0  0  0  0  0
  -14.3278   -3.5867   -9.5335 C   0  0  0  0  0  0  0  0  0  0  0  0
  -14.5466   -3.4672  -11.0083 C   0  0  0  0  0  0  0  0  0  0  0  0
  -13.5149   -3.7246  -11.9439 C   0  0  0  0  0  0  0  0  0  0  0  0
  -12.4306   -4.2144  -11.1825 C   0  0  0  0  0  0  0  0  0  0  0  0
  -12.0277   -3.8461   -9.9060 C   0  0  0  0  0  0  0  0  0  0  0  0
  -12.4252   -5.7724  -11.2281 C   0  0  0  0  0  0  0  0  0  0  0  0
  -11.8940   -5.9443  -12.5720 C   0  0  0  0  0  0  0  0  0  0  0  0
  -13.0612   -5.6364  -13.4469 C   0  0  0  0  0  0  0  0  0  0  0  0
  -13.6125   -4.3240  -13.3810 C   0  0  0  0  0  0  0  0  0  0  0  0
  -13.6727   -3.8356  -14.7322 C   0  0  0  0  0  0  0  0  0  0  0  0
  -13.6517   -4.7292  -15.9262 C   0  0  0  0  0  0  0  0  0  0  0  0
  -13.6593   -6.1328  -15.7061 C   0  0  0  0  0  0  0  0  0  0  0  0
  -13.5813   -7.2102  -16.6040 C   0  0  0  0  0  0  0  0  0  0  0  0
  -13.6356   -7.4587  -17.9934 C   0  0  0  0  0  0  0  0  0  0  0  0
  -13.5195   -8.7756  -18.4798 C   0  0  0  0  0  0  0  0  0  0  0  0
  -13.3638   -9.8566  -17.6174 C   0  0  0  0  0  0  0  0  0  0  0  0
  -13.3156   -9.6550  -16.2405 C   0  0  0  0  0  0  0  0  0  0  0  0
  -13.3877   -8.3283  -15.7762 C   0  0  0  0  0  0  0  0  0  0  0  0
  -13.3073   -7.9062  -14.4740 N   0  0  0  0  0  0  0  0  0  0  0  0
  -13.3784   -6.5285  -14.4454 C   0  0  0  0  0  0  0  0  0  0  0  0
  -13.4231   -4.0019  -17.1754 C   0  0  0  0  0  0  0  0  0  0  0  0
  -13.3247   -2.6566  -16.6431 N   0  0  0  0  0  0  0  0  0  0  0  0
  -13.4774   -2.4973  -15.2538 C   0  0  0  0  0  0  0  0  0  0  0  0
  -13.3704   -1.3978  -14.7268 O   0  0  0  0  0  0  0  0  0  0  0  0
  -12.9911   -1.8775  -17.1972 H   0  0  0  0  0  0  0  0  0  0  0  0
  -11.9953   -5.2482   -7.3149 C   0  0  0  0  0  0  0  0  0  0  0  0
  -12.5563   -4.0325   -7.7589 O   0  0  0  0  0  0  0  0  0  0  0  0
  -13.3572   -8.7152  -13.2619 C   0  0  0  0  0  0  0  0  0  0  0  0
  -12.0744   -9.4228  -12.8068 C   0  0  0  0  0  0  0  0  0  0  0  0
  -12.2409  -10.6503  -12.1116 O   0  0  0  0  0  0  0  0  0  0  0  0
  -12.7356  -10.4731  -11.2905 H   0  0  0  0  0  0  0  0  0  0  0  0
 27 28  1  0  0  0
 28  1  1  0  0  0
  1  2  1  0  0  0
  1  6  2  0  0  0
  2  3  2  0  0  0
  3  4  1  0  0  0
  4  5  2  0  0  0
  4 10  1  0  0  0
  5  6  1  0  0  0
  5  7  1  0  0  0
  7  8  1  0  0  0
  8  9  1  0  0  0
  9 10  1  0  0  0
  9 21  2  0  0  0
 10 11  2  0  0  0
 11 12  1  0  0  0
 11 24  1  0  0  0
 12 13  2  0  0  0
 12 22  1  0  0  0
 13 14  1  0  0  0
 13 21  1  0  0  0
 14 15  1  0  0  0
 14 19  2  0  0  0
 15 16  2  0  0  0
 16 17  1  0  0  0
 17 18  2  0  0  0
 18 19  1  0  0  0
 19 20  1  0  0  0
 20 29  1  0  0  0
 20 21  1  0  0  0
 29 30  1  0  0  0
 30 31  1  0  0  0
 31 32  1  0  0  0
 22 23  1  0  0  0
 23 24  1  0  0  0
 23 26  1  0  0  0
 24 25  2  0  0  0
M  END
> <minimizedAffinity>
-7.27184

$$$$
