CHEMBL3948755


 37 40  0  0  0  0  0  0  0  0999 V2000
  -16.3606    1.7178  -15.5901 N   0  0  0  0  0  0  0  0  0  0  0  0
  -17.7342    2.0576  -15.2119 C   0  0  0  0  0  0  0  0  0  0  0  0
  -18.1964    3.3895  -15.0565 C   0  0  0  0  0  0  0  0  0  0  0  0
  -19.5353    3.6870  -14.8462 C   0  0  0  0  0  0  0  0  0  0  0  0
  -20.4483    2.6696  -14.6613 C   0  0  0  0  0  0  0  0  0  0  0  0
  -21.7449    2.9652  -14.4121 N   0  0  0  0  0  0  0  0  0  0  0  0
  -22.6406    1.9929  -14.1319 C   0  0  0  0  0  0  0  0  0  0  0  0
  -22.2192    0.6540  -14.0857 C   0  0  0  0  0  0  0  0  0  0  0  0
  -20.9227    0.3539  -14.3842 N   0  0  0  0  0  0  0  0  0  0  0  0
  -20.0256    1.3319  -14.6805 C   0  0  0  0  0  0  0  0  0  0  0  0
  -18.6891    1.0262  -14.9808 C   0  0  0  0  0  0  0  0  0  0  0  0
  -23.1430   -0.4111  -13.6704 C   0  0  0  0  0  0  0  0  0  0  0  0
  -23.0703   -1.1650  -12.5214 C   0  0  0  0  0  0  0  0  0  0  0  0
  -24.1341   -1.9913  -12.4756 N   0  0  0  0  0  0  0  0  0  0  0  0
  -24.8704   -1.7737  -13.5522 N   0  0  0  0  0  0  0  0  0  0  0  0
  -24.3028   -0.8088  -14.2931 C   0  0  0  0  0  0  0  0  0  0  0  0
  -25.7608   -2.2759  -13.7693 H   0  0  0  0  0  0  0  0  0  0  0  0
  -14.0049    2.5439  -18.4896 C   0  0  0  0  0  0  0  0  0  0  0  0
  -14.1184    3.9348  -18.5840 C   0  0  0  0  0  0  0  0  0  0  0  0
  -14.9447    4.6151  -17.6621 C   0  0  0  0  0  0  0  0  0  0  0  0
  -15.0430    5.9618  -17.6856 O   0  0  0  0  0  0  0  0  0  0  0  0
  -15.6862    3.8952  -16.6973 C   0  0  0  0  0  0  0  0  0  0  0  0
  -15.6038    2.4790  -16.5987 C   0  0  0  0  0  0  0  0  0  0  0  0
  -14.7026    1.8765  -17.5038 C   0  0  0  0  0  0  0  0  0  0  0  0
  -14.5494    6.5140  -18.3073 H   0  0  0  0  0  0  0  0  0  0  0  0
  -12.3154    2.0078  -20.2536 C   0  0  0  0  0  0  0  0  0  0  0  0
  -13.2593    1.7381  -19.2963 O   0  0  0  0  0  0  0  0  0  0  0  0
  -15.8175    0.4606  -15.0462 C   0  0  0  0  0  0  0  0  0  0  0  0
  -15.2127    0.5988  -13.6358 C   0  0  0  0  0  0  0  0  0  0  0  0
  -15.8637   -0.2722  -12.5478 C   0  0  0  0  0  0  0  0  0  0  0  0
  -14.9459   -1.3816  -12.2506 N   0  0  0  0  0  0  0  0  0  0  0  0
  -14.7004   -1.3474  -11.2343 H   0  0  0  0  0  0  0  0  0  0  0  0
  -15.5146   -2.7021  -12.5406 C   0  0  0  0  0  0  0  0  0  0  0  0
  -15.8356   -3.4559  -11.2279 C   0  0  0  0  0  0  0  0  0  0  0  0
  -16.1251   -2.5809  -10.1919 F   0  0  0  0  0  0  0  0  0  0  0  0
  -16.9275   -4.2851  -11.4148 F   0  0  0  0  0  0  0  0  0  0  0  0
  -14.7540   -4.2296  -10.8473 F   0  0  0  0  0  0  0  0  0  0  0  0
 26 27  1  0  0  0
 27 18  1  0  0  0
 18 19  1  0  0  0
 18 24  2  0  0  0
 19 20  2  0  0  0
 20 21  1  0  0  0
 20 22  1  0  0  0
 21 25  1  0  0  0
 22 23  2  0  0  0
 23  1  1  0  0  0
 23 24  1  0  0  0
  1 28  1  0  0  0
  1  2  1  0  0  0
 28 29  1  0  0  0
 29 30  1  0  0  0
 30 31  1  0  0  0
 31 33  1  0  0  0
 31 32  1  0  0  0
 33 34  1  0  0  0
 34 35  1  0  0  0
 34 36  1  0  0  0
 34 37  1  0  0  0
  2  3  1  0  0  0
  2 11  2  0  0  0
  3  4  2  0  0  0
  4  5  1  0  0  0
  5  6  1  0  0  0
  5 10  2  0  0  0
  6  7  2  0  0  0
  7  8  1  0  0  0
  8 12  1  0  0  0
  8  9  2  0  0  0
 12 13  1  0  0  0
 12 16  2  0  0  0
 13 14  2  0  0  0
 14 15  1  0  0  0
 15 16  1  0  0  0
 15 17  1  0  0  0
  9 10  1  0  0  0
 10 11  1  0  0  0
M  END
> <minimizedAffinity>
-8.55470

$$$$
