CHEMBL3889544


 39 42  0  0  0  0  0  0  0  0999 V2000
  -27.9670   -9.5123   -7.6596 C   0  0  0  0  0  0  0  0  0  0  0  0
  -28.4529   -8.5774   -6.5875 C   0  0  0  0  0  0  0  0  0  0  0  0
  -29.1183   -7.4180   -7.0388 C   0  0  0  0  0  0  0  0  0  0  0  0
  -29.7081   -6.5066   -6.1566 C   0  0  0  0  0  0  0  0  0  0  0  0
  -29.5853   -6.7237   -4.7959 C   0  0  0  0  0  0  0  0  0  0  0  0
  -28.8918   -7.8570   -4.3308 C   0  0  0  0  0  0  0  0  0  0  0  0
  -28.2972   -8.7896   -5.2004 C   0  0  0  0  0  0  0  0  0  0  0  0
  -27.5460   -9.8958   -4.6960 N   0  0  0  0  0  0  0  0  0  0  0  0
  -26.1655   -9.8956   -4.4997 C   0  0  0  0  0  0  0  0  0  0  0  0
  -25.4167   -8.9517   -4.7070 O   0  0  0  0  0  0  0  0  0  0  0  0
  -25.6706  -11.1418   -4.1067 N   0  0  0  0  0  0  0  0  0  0  0  0
  -28.0437  -10.7585   -4.5426 H   0  0  0  0  0  0  0  0  0  0  0  0
  -26.1374  -11.9358   -4.5274 H   0  0  0  0  0  0  0  0  0  0  0  0
  -24.2672  -11.3192   -3.9060 C   0  0  0  0  0  0  0  0  0  0  0  0
  -23.3524  -11.4088   -4.9733 C   0  0  0  0  0  0  0  0  0  0  0  0
  -21.9853  -11.6319   -4.7391 C   0  0  0  0  0  0  0  0  0  0  0  0
  -21.5233  -11.7223   -3.4266 C   0  0  0  0  0  0  0  0  0  0  0  0
  -22.4255  -11.6530   -2.3599 C   0  0  0  0  0  0  0  0  0  0  0  0
  -23.7788  -11.4373   -2.6031 C   0  0  0  0  0  0  0  0  0  0  0  0
  -24.6332  -11.3996   -1.5686 F   0  0  0  0  0  0  0  0  0  0  0  0
  -21.2210  -11.7015   -5.8652 O   0  0  0  0  0  0  0  0  0  0  0  0
  -21.3404  -10.7136   -6.8819 C   0  0  0  0  0  0  0  0  0  0  0  0
  -20.1722  -10.1441   -7.2448 F   0  0  0  0  0  0  0  0  0  0  0  0
  -21.8726  -11.2919   -7.9823 F   0  0  0  0  0  0  0  0  0  0  0  0
  -22.1856   -9.7438   -6.4692 F   0  0  0  0  0  0  0  0  0  0  0  0
  -30.3488   -5.3585   -6.5728 O   0  0  0  0  0  0  0  0  0  0  0  0
  -29.5744   -4.2188   -6.7911 C   0  0  0  0  0  0  0  0  0  0  0  0
  -28.8321   -4.1669   -7.9552 C   0  0  0  0  0  0  0  0  0  0  0  0
  -28.0512   -3.0381   -8.1111 C   0  0  0  0  0  0  0  0  0  0  0  0
  -28.0622   -2.0419   -7.2215 N   0  0  0  0  0  0  0  0  0  0  0  0
  -28.8117   -2.1944   -6.1309 C   0  0  0  0  0  0  0  0  0  0  0  0
  -29.5621   -3.2574   -5.8514 N   0  0  0  0  0  0  0  0  0  0  0  0
  -27.2131   -2.9326   -9.2378 N   0  0  0  0  0  0  0  0  0  0  0  0
  -27.3671   -1.9717  -10.2317 C   0  0  0  0  0  0  0  0  0  0  0  0
  -28.2215   -1.0953  -10.2728 O   0  0  0  0  0  0  0  0  0  0  0  0
  -26.4285   -3.5632   -9.3124 H   0  0  0  0  0  0  0  0  0  0  0  0
  -26.3817   -2.0718  -11.3380 C   0  0  0  0  0  0  0  0  0  0  0  0
  -25.7561   -0.8228  -11.9303 C   0  0  0  0  0  0  0  0  0  0  0  0
  -26.7877   -1.5802  -12.7099 C   0  0  0  0  0  0  0  0  0  0  0  0
  1  2  1  0  0  0
  2  3  1  0  0  0
  2  7  2  0  0  0
  3  4  2  0  0  0
  4 26  1  0  0  0
  4  5  1  0  0  0
 26 27  1  0  0  0
 27 28  1  0  0  0
 27 32  2  0  0  0
 28 29  2  0  0  0
 29 33  1  0  0  0
 29 30  1  0  0  0
 33 34  1  0  0  0
 33 36  1  0  0  0
 34 35  2  0  0  0
 34 37  1  0  0  0
 37 38  1  0  0  0
 37 39  1  0  0  0
 38 39  1  0  0  0
 30 31  2  0  0  0
 31 32  1  0  0  0
  5  6  2  0  0  0
  6  7  1  0  0  0
  7  8  1  0  0  0
  8  9  1  0  0  0
  8 12  1  0  0  0
  9 10  2  0  0  0
  9 11  1  0  0  0
 11 14  1  0  0  0
 11 13  1  0  0  0
 14 15  1  0  0  0
 14 19  2  0  0  0
 15 16  2  0  0  0
 16 21  1  0  0  0
 16 17  1  0  0  0
 21 22  1  0  0  0
 22 23  1  0  0  0
 22 24  1  0  0  0
 22 25  1  0  0  0
 17 18  2  0  0  0
 18 19  1  0  0  0
 19 20  1  0  0  0
M  END
> <minimizedAffinity>
-9.71335

$$$$
