CHEMBL3586051


 30 32  0  0  0  0  0  0  0  0999 V2000
  -21.5660    0.0822  -12.8942 O   0  0  0  0  0  0  0  0  0  0  0  0
  -22.2675    0.4417  -13.8308 C   0  0  0  0  0  0  0  0  0  0  0  0
  -21.8162    1.2074  -14.8939 N   0  0  0  0  0  0  0  0  0  0  0  0
  -23.6197    0.1729  -13.9484 N   0  0  0  0  0  0  0  0  0  0  0  0
  -22.5203    1.5977  -15.5000 H   0  0  0  0  0  0  0  0  0  0  0  0
  -24.0654    0.3918  -14.8299 H   0  0  0  0  0  0  0  0  0  0  0  0
  -24.4474   -0.4640  -12.9937 C   0  0  0  0  0  0  0  0  0  0  0  0
  -24.2254   -0.3639  -11.6165 C   0  0  0  0  0  0  0  0  0  0  0  0
  -25.0563   -1.0100  -10.6959 C   0  0  0  0  0  0  0  0  0  0  0  0
  -26.1070   -1.8024  -11.1388 C   0  0  0  0  0  0  0  0  0  0  0  0
  -26.3809   -1.8665  -12.5071 C   0  0  0  0  0  0  0  0  0  0  0  0
  -25.5552   -1.2100  -13.4270 C   0  0  0  0  0  0  0  0  0  0  0  0
  -25.9893   -1.3576  -15.2739 Br  0  0  0  0  0  0  0  0  0  0  0  0
  -26.9597   -2.4948  -10.3358 O   0  0  0  0  0  0  0  0  0  0  0  0
  -27.8300   -1.7760   -9.4669 C   0  0  0  0  0  0  0  0  0  0  0  0
  -27.2277   -1.2382   -8.3860 F   0  0  0  0  0  0  0  0  0  0  0  0
  -28.4322   -0.7878  -10.1627 F   0  0  0  0  0  0  0  0  0  0  0  0
  -28.7859   -2.6231   -9.0238 F   0  0  0  0  0  0  0  0  0  0  0  0
  -20.5120    1.7221  -15.0440 C   0  0  0  0  0  0  0  0  0  0  0  0
  -20.2184    3.0831  -15.1532 C   0  0  0  0  0  0  0  0  0  0  0  0
  -18.9047    3.5136  -15.3719 C   0  0  0  0  0  0  0  0  0  0  0  0
  -17.8442    2.6059  -15.5001 C   0  0  0  0  0  0  0  0  0  0  0  0
  -18.1535    1.2436  -15.3499 C   0  0  0  0  0  0  0  0  0  0  0  0
  -19.4638    0.8078  -15.1113 C   0  0  0  0  0  0  0  0  0  0  0  0
  -16.4701    3.0491  -15.8073 C   0  0  0  0  0  0  0  0  0  0  0  0
  -16.1819    4.3453  -16.2580 C   0  0  0  0  0  0  0  0  0  0  0  0
  -14.8657    4.7445  -16.4907 C   0  0  0  0  0  0  0  0  0  0  0  0
  -13.8534    3.8245  -16.2846 C   0  0  0  0  0  0  0  0  0  0  0  0
  -14.0709    2.5630  -15.8684 N   0  0  0  0  0  0  0  0  0  0  0  0
  -15.3626    2.2129  -15.6394 C   0  0  0  0  0  0  0  0  0  0  0  0
  1  2  2  0  0  0
  2  3  1  0  0  0
  2  4  1  0  0  0
  3 19  1  0  0  0
  3  5  1  0  0  0
 19 20  1  0  0  0
 19 24  2  0  0  0
 20 21  2  0  0  0
 21 22  1  0  0  0
 22 25  1  0  0  0
 22 23  2  0  0  0
 25 26  1  0  0  0
 25 30  2  0  0  0
 26 27  2  0  0  0
 27 28  1  0  0  0
 28 29  2  0  0  0
 29 30  1  0  0  0
 23 24  1  0  0  0
  4  7  1  0  0  0
  4  6  1  0  0  0
  7  8  1  0  0  0
  7 12  2  0  0  0
  8  9  2  0  0  0
  9 10  1  0  0  0
 10 14  1  0  0  0
 10 11  2  0  0  0
 14 15  1  0  0  0
 15 16  1  0  0  0
 15 17  1  0  0  0
 15 18  1  0  0  0
 11 12  1  0  0  0
 12 13  1  0  0  0
M  END
> <minimizedAffinity>
-8.83859

$$$$
