CHEMBL3690504


 42 45  0  0  0  0  0  0  0  0999 V2000
  -29.6958   -5.4721   -6.2655 C   0  0  0  0  0  0  0  0  0  0  0  0
  -29.5055   -4.4251   -7.2673 C   0  0  0  0  0  0  0  0  0  0  0  0
  -29.4940   -3.1339   -6.8951 C   0  0  0  0  0  0  0  0  0  0  0  0
  -29.7163   -2.7823   -5.5574 N   0  0  0  0  0  0  0  0  0  0  0  0
  -29.8106   -1.5364   -4.9232 C   0  0  0  0  0  0  0  0  0  0  0  0
  -30.0075   -1.8664   -3.5894 C   0  0  0  0  0  0  0  0  0  0  0  0
  -30.0669   -3.2184   -3.3845 N   0  0  0  0  0  0  0  0  0  0  0  0
  -29.9063   -3.7551   -4.5728 C   0  0  0  0  0  0  0  0  0  0  0  0
  -29.8950   -5.1280   -4.9716 C   0  0  0  0  0  0  0  0  0  0  0  0
  -27.5182   -9.9331   -6.1184 C   0  0  0  0  0  0  0  0  0  0  0  0
  -28.7072   -9.1164   -6.5298 C   0  0  0  0  0  0  0  0  0  0  0  0
  -28.7057   -7.7499   -6.1934 C   0  0  0  0  0  0  0  0  0  0  0  0
  -29.7196   -6.9014   -6.6278 C   0  0  0  0  0  0  0  0  0  0  0  0
  -30.7209   -7.4778   -7.3964 C   0  0  0  0  0  0  0  0  0  0  0  0
  -30.7475   -8.7873   -7.7689 N   0  0  0  0  0  0  0  0  0  0  0  0
  -29.7614   -9.6070   -7.3160 C   0  0  0  0  0  0  0  0  0  0  0  0
  -29.7582  -10.9483   -7.7859 N   0  0  0  0  0  0  0  0  0  0  0  0
  -29.6507  -12.0016   -6.7923 C   0  0  0  0  0  0  0  0  0  0  0  0
  -29.3581  -11.3040   -9.0782 C   0  0  0  0  0  0  0  0  0  0  0  0
  -29.2387  -12.4650   -9.4436 O   0  0  0  0  0  0  0  0  0  0  0  0
  -28.9851  -10.2424   -9.8562 O   0  0  0  0  0  0  0  0  0  0  0  0
  -27.5688  -10.0544  -10.1132 C   0  0  0  0  0  0  0  0  0  0  0  0
  -26.6601  -11.1566   -9.5505 C   0  0  0  0  0  0  0  0  0  0  0  0
  -27.4289  -10.0453  -11.6438 C   0  0  0  0  0  0  0  0  0  0  0  0
  -27.1464   -8.6765   -9.5841 C   0  0  0  0  0  0  0  0  0  0  0  0
  -29.7728   -0.1987   -5.5488 C   0  0  0  0  0  0  0  0  0  0  0  0
  -28.5497    0.3948   -5.8791 C   0  0  0  0  0  0  0  0  0  0  0  0
  -28.4959    1.6571   -6.4546 C   0  0  0  0  0  0  0  0  0  0  0  0
  -29.6705    2.3172   -6.7955 C   0  0  0  0  0  0  0  0  0  0  0  0
  -30.9158    1.7274   -6.5760 C   0  0  0  0  0  0  0  0  0  0  0  0
  -30.9606    0.4826   -5.9112 C   0  0  0  0  0  0  0  0  0  0  0  0
  -32.1261    2.3317   -7.0138 N   0  0  0  0  0  0  0  0  0  0  0  0
  -32.4912    2.5385   -8.3312 C   0  0  0  0  0  0  0  0  0  0  0  0
  -31.8528    2.2348   -9.3322 O   0  0  0  0  0  0  0  0  0  0  0  0
  -33.6850    3.2058   -8.4650 N   0  0  0  0  0  0  0  0  0  0  0  0
  -32.8017    2.5685   -6.3060 H   0  0  0  0  0  0  0  0  0  0  0  0
  -34.3824    3.0637   -7.7407 H   0  0  0  0  0  0  0  0  0  0  0  0
  -34.1688    3.4888   -9.8262 C   0  0  0  0  0  0  0  0  0  0  0  0
  -34.5686    4.9403  -10.1315 C   0  0  0  0  0  0  0  0  0  0  0  0
  -34.7516    5.1569  -11.4523 F   0  0  0  0  0  0  0  0  0  0  0  0
  -35.7518    5.2270   -9.5215 F   0  0  0  0  0  0  0  0  0  0  0  0
  -33.6632    5.8318   -9.6778 F   0  0  0  0  0  0  0  0  0  0  0  0
 10 11  1  0  0  0
 11 12  1  0  0  0
 11 16  2  0  0  0
 12 13  2  0  0  0
 13  1  1  0  0  0
 13 14  1  0  0  0
  1  2  1  0  0  0
  1  9  2  0  0  0
  2  3  2  0  0  0
  3  4  1  0  0  0
  4  5  1  0  0  0
  4  8  1  0  0  0
  5 26  1  0  0  0
  5  6  2  0  0  0
 26 27  1  0  0  0
 26 31  2  0  0  0
 27 28  2  0  0  0
 28 29  1  0  0  0
 29 30  2  0  0  0
 30 32  1  0  0  0
 30 31  1  0  0  0
 32 33  1  0  0  0
 32 36  1  0  0  0
 33 34  2  0  0  0
 33 35  1  0  0  0
 35 38  1  0  0  0
 35 37  1  0  0  0
 38 39  1  0  0  0
 39 40  1  0  0  0
 39 41  1  0  0  0
 39 42  1  0  0  0
  6  7  1  0  0  0
  7  8  2  0  0  0
  8  9  1  0  0  0
 14 15  2  0  0  0
 15 16  1  0  0  0
 16 17  1  0  0  0
 17 18  1  0  0  0
 17 19  1  0  0  0
 19 20  2  0  0  0
 19 21  1  0  0  0
 21 22  1  0  0  0
 22 23  1  0  0  0
 22 24  1  0  0  0
 22 25  1  0  0  0
M  END
> <minimizedAffinity>
-8.12812

$$$$
