CHEMBL4581670


 36 40  0  0  0  0  0  0  0  0999 V2000
  -27.4178   -1.6962   -9.3029 C   0  0  0  0  0  0  0  0  0  0  0  0
  -26.0237   -1.7920   -9.4044 C   0  0  0  0  0  0  0  0  0  0  0  0
  -25.3778   -1.6077  -10.6378 C   0  0  0  0  0  0  0  0  0  0  0  0
  -26.1055   -1.3327  -11.8027 C   0  0  0  0  0  0  0  0  0  0  0  0
  -27.4973   -1.2238  -11.6987 C   0  0  0  0  0  0  0  0  0  0  0  0
  -28.1411   -1.3816  -10.4588 C   0  0  0  0  0  0  0  0  0  0  0  0
  -27.6741   -5.0184   -8.7468 N   0  0  0  0  0  0  0  0  0  0  0  0
  -28.3230   -4.4431   -7.6685 C   0  0  0  0  0  0  0  0  0  0  0  0
  -28.8365   -5.3277   -6.7918 N   0  0  0  0  0  0  0  0  0  0  0  0
  -29.4387   -4.8810   -5.6783 C   0  0  0  0  0  0  0  0  0  0  0  0
  -29.5891   -3.6143   -5.3034 N   0  0  0  0  0  0  0  0  0  0  0  0
  -29.0777   -2.7333   -6.1839 C   0  0  0  0  0  0  0  0  0  0  0  0
  -29.0612   -1.3495   -6.0816 C   0  0  0  0  0  0  0  0  0  0  0  0
  -28.4331   -0.8535   -7.1874 C   0  0  0  0  0  0  0  0  0  0  0  0
  -28.0657   -1.8743   -8.0378 N   0  0  0  0  0  0  0  0  0  0  0  0
  -28.4536   -3.0771   -7.3967 C   0  0  0  0  0  0  0  0  0  0  0  0
  -28.4572    0.6285   -7.2408 C   0  0  0  0  0  0  0  0  0  0  0  0
  -29.5015    0.9539   -6.1181 C   0  0  0  0  0  0  0  0  0  0  0  0
  -29.5578   -0.2941   -5.1826 C   0  0  0  0  0  0  0  0  0  0  0  0
  -27.5670   -6.0136   -8.5764 H   0  0  0  0  0  0  0  0  0  0  0  0
  -26.8321   -4.5380   -9.0308 H   0  0  0  0  0  0  0  0  0  0  0  0
  -25.3832   -1.0141  -13.0974 C   0  0  0  0  0  0  0  0  0  0  0  0
  -24.3177    0.0720  -13.0679 C   0  0  0  0  0  0  0  0  0  0  0  0
  -24.2100    0.8223  -12.0989 O   0  0  0  0  0  0  0  0  0  0  0  0
  -23.4696    0.0950  -14.1629 N   0  0  0  0  0  0  0  0  0  0  0  0
  -23.8721   -0.2367  -15.0321 H   0  0  0  0  0  0  0  0  0  0  0  0
  -22.3720    0.9810  -14.2564 C   0  0  0  0  0  0  0  0  0  0  0  0
  -22.6211    2.3436  -14.1541 C   0  0  0  0  0  0  0  0  0  0  0  0
  -21.5471    3.2109  -14.2211 C   0  0  0  0  0  0  0  0  0  0  0  0
  -20.2793    2.8180  -14.4587 N   0  0  0  0  0  0  0  0  0  0  0  0
  -20.0409    1.4826  -14.6083 C   0  0  0  0  0  0  0  0  0  0  0  0
  -21.0649    0.5376  -14.4816 C   0  0  0  0  0  0  0  0  0  0  0  0
  -18.6336    1.0219  -14.9711 C   0  0  0  0  0  0  0  0  0  0  0  0
  -18.0490    1.7434  -15.9720 F   0  0  0  0  0  0  0  0  0  0  0  0
  -17.7647    1.0775  -13.9210 F   0  0  0  0  0  0  0  0  0  0  0  0
  -18.6066   -0.2764  -15.3988 F   0  0  0  0  0  0  0  0  0  0  0  0
  7  8  1  0  0  0
  7 20  1  0  0  0
  7 21  1  0  0  0
  8  9  1  0  0  0
  8 16  2  0  0  0
  9 10  2  0  0  0
 10 11  1  0  0  0
 11 12  2  0  0  0
 12 13  1  0  0  0
 12 16  1  0  0  0
 13 14  2  0  0  0
 13 19  1  0  0  0
 14 15  1  0  0  0
 14 17  1  0  0  0
 15  1  1  0  0  0
 15 16  1  0  0  0
  1  2  1  0  0  0
  1  6  2  0  0  0
  2  3  2  0  0  0
  3  4  1  0  0  0
  4 22  1  0  0  0
  4  5  2  0  0  0
 22 23  1  0  0  0
 23 24  2  0  0  0
 23 25  1  0  0  0
 25 27  1  0  0  0
 25 26  1  0  0  0
 27 28  1  0  0  0
 27 32  2  0  0  0
 28 29  2  0  0  0
 29 30  1  0  0  0
 30 31  2  0  0  0
 31 33  1  0  0  0
 31 32  1  0  0  0
 33 34  1  0  0  0
 33 35  1  0  0  0
 33 36  1  0  0  0
  5  6  1  0  0  0
 17 18  1  0  0  0
 18 19  1  0  0  0
M  END
> <minimizedAffinity>
-9.70739

$$$$
