CHEMBL4086998


 30 34  0  0  0  0  0  0  0  0999 V2000
  -26.6377  -10.0240   -3.9222 N   0  0  0  0  0  0  0  0  0  0  0  0
  -26.8745   -9.9525   -5.2771 C   0  0  0  0  0  0  0  0  0  0  0  0
  -26.2345  -10.4065   -6.2135 O   0  0  0  0  0  0  0  0  0  0  0  0
  -28.1255   -9.3898   -5.5738 N   0  0  0  0  0  0  0  0  0  0  0  0
  -29.0814  -10.0306   -6.3382 C   0  0  0  0  0  0  0  0  0  0  0  0
  -30.1551   -9.2059   -6.5291 C   0  0  0  0  0  0  0  0  0  0  0  0
  -29.8365   -7.9613   -5.9049 C   0  0  0  0  0  0  0  0  0  0  0  0
  -30.5120   -6.7397   -5.8453 C   0  0  0  0  0  0  0  0  0  0  0  0
  -29.8979   -5.6598   -5.2093 C   0  0  0  0  0  0  0  0  0  0  0  0
  -28.6212   -5.7852   -4.6678 C   0  0  0  0  0  0  0  0  0  0  0  0
  -27.9245   -6.9943   -4.7408 C   0  0  0  0  0  0  0  0  0  0  0  0
  -28.5616   -8.0892   -5.3287 C   0  0  0  0  0  0  0  0  0  0  0  0
  -27.3352   -9.7233   -3.2577 H   0  0  0  0  0  0  0  0  0  0  0  0
  -21.9896  -11.3618   -2.6269 C   0  0  0  0  0  0  0  0  0  0  0  0
  -23.4249  -11.1765   -2.8892 C   0  0  0  0  0  0  0  0  0  0  0  0
  -24.1862  -10.1887   -3.4700 C   0  0  0  0  0  0  0  0  0  0  0  0
  -25.5171  -10.6807   -3.4303 C   0  0  0  0  0  0  0  0  0  0  0  0
  -25.5375  -11.8810   -2.8398 N   0  0  0  0  0  0  0  0  0  0  0  0
  -24.2412  -12.1874   -2.4987 O   0  0  0  0  0  0  0  0  0  0  0  0
  -30.6461   -4.5214   -5.0713 O   0  0  0  0  0  0  0  0  0  0  0  0
  -30.0476   -3.2910   -5.3070 C   0  0  0  0  0  0  0  0  0  0  0  0
  -29.5878   -2.5404   -4.2833 N   0  0  0  0  0  0  0  0  0  0  0  0
  -28.7022   -1.5800   -4.5959 C   0  0  0  0  0  0  0  0  0  0  0  0
  -28.1559   -1.3782   -5.8039 N   0  0  0  0  0  0  0  0  0  0  0  0
  -28.6604   -2.1660   -6.7641 C   0  0  0  0  0  0  0  0  0  0  0  0
  -29.6949   -3.0565   -6.5969 C   0  0  0  0  0  0  0  0  0  0  0  0
  -29.8469   -3.8759   -7.8216 C   0  0  0  0  0  0  0  0  0  0  0  0
  -28.4403   -4.0074   -8.2621 N   0  0  0  0  0  0  0  0  0  0  0  0
  -27.9157   -2.6199   -8.0062 C   0  0  0  0  0  0  0  0  0  0  0  0
  -27.9937   -4.6118   -7.5605 H   0  0  0  0  0  0  0  0  0  0  0  0
 14 15  1  0  0  0
 15 16  2  0  0  0
 15 19  1  0  0  0
 16 17  1  0  0  0
 17  1  1  0  0  0
 17 18  2  0  0  0
  1  2  1  0  0  0
  1 13  1  0  0  0
  2  3  2  0  0  0
  2  4  1  0  0  0
  4  5  1  0  0  0
  4 12  1  0  0  0
  5  6  2  0  0  0
  6  7  1  0  0  0
  7  8  1  0  0  0
  7 12  2  0  0  0
  8  9  2  0  0  0
  9 20  1  0  0  0
  9 10  1  0  0  0
 20 21  1  0  0  0
 21 22  1  0  0  0
 21 26  2  0  0  0
 22 23  2  0  0  0
 23 24  1  0  0  0
 24 25  2  0  0  0
 25 26  1  0  0  0
 25 29  1  0  0  0
 26 27  1  0  0  0
 27 28  1  0  0  0
 28 29  1  0  0  0
 28 30  1  0  0  0
 10 11  2  0  0  0
 11 12  1  0  0  0
 18 19  1  0  0  0
M  END
> <minimizedAffinity>
-8.37183

$$$$
