CHEMBL4226340


 38 40  0  0  0  0  0  0  0  0999 V2000
  -14.3241   -0.2737  -14.0497 N   0  0  0  0  0  0  0  0  0  0  0  0
  -13.9227   -0.0204  -13.1542 H   0  0  0  0  0  0  0  0  0  0  0  0
  -17.7104    2.0364  -15.0613 C   0  0  0  0  0  0  0  0  0  0  0  0
  -16.6705    1.8980  -15.9819 C   0  0  0  0  0  0  0  0  0  0  0  0
  -15.5392    1.1383  -15.6715 C   0  0  0  0  0  0  0  0  0  0  0  0
  -15.4313    0.4994  -14.4415 C   0  0  0  0  0  0  0  0  0  0  0  0
  -16.4421    0.6988  -13.4875 C   0  0  0  0  0  0  0  0  0  0  0  0
  -17.5752    1.4657  -13.7962 C   0  0  0  0  0  0  0  0  0  0  0  0
  -19.1497    2.9792  -15.5000 S   0  0  0  0  0  0  0  0  0  0  0  0
  -22.6996    0.7361  -13.7529 C   0  0  0  0  0  0  0  0  0  0  0  0
  -21.7034   -0.0125  -14.3771 C   0  0  0  0  0  0  0  0  0  0  0  0
  -20.5946    0.6423  -14.9244 C   0  0  0  0  0  0  0  0  0  0  0  0
  -20.5011    2.0297  -14.8266 C   0  0  0  0  0  0  0  0  0  0  0  0
  -21.4775    2.7677  -14.2470 N   0  0  0  0  0  0  0  0  0  0  0  0
  -22.5531    2.1141  -13.7374 C   0  0  0  0  0  0  0  0  0  0  0  0
  -25.5934   -1.6348  -13.2398 C   0  0  0  0  0  0  0  0  0  0  0  0
  -24.4702   -0.9291  -13.8009 N   0  0  0  0  0  0  0  0  0  0  0  0
  -23.9004    0.1372  -13.1298 C   0  0  0  0  0  0  0  0  0  0  0  0
  -24.3180    0.5619  -12.0608 O   0  0  0  0  0  0  0  0  0  0  0  0
  -23.9907   -1.3510  -14.5848 H   0  0  0  0  0  0  0  0  0  0  0  0
  -13.7132   -1.3739  -14.6147 C   0  0  0  0  0  0  0  0  0  0  0  0
  -12.2690   -1.4498  -15.4488 S   0  0  0  0  0  0  0  0  0  0  0  0
  -14.4802   -2.5224  -14.5719 N   0  0  0  0  0  0  0  0  0  0  0  0
  -15.0465   -2.6909  -15.3982 H   0  0  0  0  0  0  0  0  0  0  0  0
  -14.4771   -3.5133  -13.5738 C   0  0  0  0  0  0  0  0  0  0  0  0
  -14.5107   -4.8513  -13.9610 C   0  0  0  0  0  0  0  0  0  0  0  0
  -14.5911   -5.8643  -12.9920 C   0  0  0  0  0  0  0  0  0  0  0  0
  -14.5638   -5.5155  -11.6289 C   0  0  0  0  0  0  0  0  0  0  0  0
  -14.4507   -4.1773  -11.2297 C   0  0  0  0  0  0  0  0  0  0  0  0
  -14.4218   -3.1840  -12.2158 C   0  0  0  0  0  0  0  0  0  0  0  0
  -14.7260   -7.3146  -13.3910 C   0  0  0  0  0  0  0  0  0  0  0  0
  -14.3606   -8.1844  -12.4100 F   0  0  0  0  0  0  0  0  0  0  0  0
  -16.0019   -7.6409  -13.7301 F   0  0  0  0  0  0  0  0  0  0  0  0
  -13.9569   -7.6229  -14.4709 F   0  0  0  0  0  0  0  0  0  0  0  0
  -14.3394   -3.7811   -9.7772 C   0  0  0  0  0  0  0  0  0  0  0  0
  -15.2623   -2.8568   -9.3969 F   0  0  0  0  0  0  0  0  0  0  0  0
  -14.5013   -4.8420   -8.9405 F   0  0  0  0  0  0  0  0  0  0  0  0
  -13.1243   -3.2459   -9.4790 F   0  0  0  0  0  0  0  0  0  0  0  0
 16 17  1  0  0  0
 17 18  1  0  0  0
 17 20  1  0  0  0
 18 19  2  0  0  0
 18 10  1  0  0  0
 10 11  1  0  0  0
 10 15  2  0  0  0
 11 12  2  0  0  0
 12 13  1  0  0  0
 13  9  1  0  0  0
 13 14  2  0  0  0
  9  3  1  0  0  0
  3  4  1  0  0  0
  3  8  2  0  0  0
  4  5  2  0  0  0
  5  6  1  0  0  0
  6  1  1  0  0  0
  6  7  2  0  0  0
  1 21  1  0  0  0
  1  2  1  0  0  0
 21 22  2  0  0  0
 21 23  1  0  0  0
 23 25  1  0  0  0
 23 24  1  0  0  0
 25 26  1  0  0  0
 25 30  2  0  0  0
 26 27  2  0  0  0
 27 31  1  0  0  0
 27 28  1  0  0  0
 31 32  1  0  0  0
 31 33  1  0  0  0
 31 34  1  0  0  0
 28 29  2  0  0  0
 29 35  1  0  0  0
 29 30  1  0  0  0
 35 36  1  0  0  0
 35 37  1  0  0  0
 35 38  1  0  0  0
  7  8  1  0  0  0
 14 15  1  0  0  0
M  END
> <minimizedAffinity>
-9.12526

$$$$
