CHEMBL379674


 28 30  0  0  0  0  0  0  0  0999 V2000
  -30.2227   -6.7720   -5.2782 O   0  0  0  0  0  0  0  0  0  0  0  0
  -29.0186   -6.9292   -5.4583 C   0  0  0  0  0  0  0  0  0  0  0  0
  -28.1295   -5.8649   -5.5636 N   0  0  0  0  0  0  0  0  0  0  0  0
  -27.2045   -6.0696   -5.9193 H   0  0  0  0  0  0  0  0  0  0  0  0
  -28.4727   -4.5092   -5.3607 C   0  0  0  0  0  0  0  0  0  0  0  0
  -29.0256   -3.7140   -6.3701 C   0  0  0  0  0  0  0  0  0  0  0  0
  -29.3056   -2.3625   -6.1610 C   0  0  0  0  0  0  0  0  0  0  0  0
  -29.0503   -1.7796   -4.9264 C   0  0  0  0  0  0  0  0  0  0  0  0
  -28.5244   -2.5730   -3.9016 C   0  0  0  0  0  0  0  0  0  0  0  0
  -28.2577   -3.9350   -4.1076 C   0  0  0  0  0  0  0  0  0  0  0  0
  -29.2223   -0.4595   -4.6252 O   0  0  0  0  0  0  0  0  0  0  0  0
  -28.2464    0.4540   -5.1218 C   0  0  0  0  0  0  0  0  0  0  0  0
  -27.9765    1.4125   -4.2016 F   0  0  0  0  0  0  0  0  0  0  0  0
  -27.0957   -0.2110   -5.3919 F   0  0  0  0  0  0  0  0  0  0  0  0
  -28.8532    1.2217   -6.5931 Cl  0  0  0  0  0  0  0  0  0  0  0  0
  -28.4651   -8.2675   -5.6025 C   0  0  0  0  0  0  0  0  0  0  0  0
  -27.9361   -9.2297   -4.2931 S   0  0  0  0  0  0  0  0  0  0  0  0
  -27.5443  -10.4864   -5.3914 C   0  0  0  0  0  0  0  0  0  0  0  0
  -27.7708  -10.2378   -6.6614 N   0  0  0  0  0  0  0  0  0  0  0  0
  -28.3010   -8.9625   -6.7981 C   0  0  0  0  0  0  0  0  0  0  0  0
  -28.6636   -8.4350   -8.1617 C   0  0  0  0  0  0  0  0  0  0  0  0
  -29.4980   -9.3693   -9.0334 C   0  0  0  0  0  0  0  0  0  0  0  0
  -30.7782   -9.7632   -8.3333 C   0  0  0  0  0  0  0  0  0  0  0  0
  -31.6599   -8.7902   -7.8551 C   0  0  0  0  0  0  0  0  0  0  0  0
  -32.8116   -9.1992   -7.1983 C   0  0  0  0  0  0  0  0  0  0  0  0
  -33.1373  -10.4915   -6.9825 N   0  0  0  0  0  0  0  0  0  0  0  0
  -32.2661  -11.4158   -7.4395 C   0  0  0  0  0  0  0  0  0  0  0  0
  -31.0901  -11.1069   -8.1074 C   0  0  0  0  0  0  0  0  0  0  0  0
  1  2  2  0  0  0
  2  3  1  0  0  0
  2 16  1  0  0  0
  3  5  1  0  0  0
  3  4  1  0  0  0
  5  6  1  0  0  0
  5 10  2  0  0  0
  6  7  2  0  0  0
  7  8  1  0  0  0
  8 11  1  0  0  0
  8  9  2  0  0  0
 11 12  1  0  0  0
 12 13  1  0  0  0
 12 14  1  0  0  0
 12 15  1  0  0  0
  9 10  1  0  0  0
 16 17  1  0  0  0
 16 20  2  0  0  0
 17 18  1  0  0  0
 18 19  2  0  0  0
 19 20  1  0  0  0
 20 21  1  0  0  0
 21 22  1  0  0  0
 22 23  1  0  0  0
 23 24  1  0  0  0
 23 28  2  0  0  0
 24 25  2  0  0  0
 25 26  1  0  0  0
 26 27  2  0  0  0
 27 28  1  0  0  0
M  END
> <minimizedAffinity>
-8.01206

$$$$
