CHEMBL496762


 35 39  0  0  0  0  0  0  0  0999 V2000
  -14.1820   -5.1143  -13.4447 C   0  0  0  0  0  0  0  0  0  0  0  0
  -14.2654   -6.1185  -12.4564 C   0  0  0  0  0  0  0  0  0  0  0  0
  -14.7546   -5.8559  -11.1769 C   0  0  0  0  0  0  0  0  0  0  0  0
  -15.1639   -4.5762  -10.8530 C   0  0  0  0  0  0  0  0  0  0  0  0
  -15.1002   -3.5697  -11.8173 C   0  0  0  0  0  0  0  0  0  0  0  0
  -15.5574   -2.3139  -11.4397 N   0  0  0  0  0  0  0  0  0  0  0  0
  -15.6077   -1.2483  -12.2719 C   0  0  0  0  0  0  0  0  0  0  0  0
  -16.0102   -0.1733  -11.8279 O   0  0  0  0  0  0  0  0  0  0  0  0
  -15.1191   -1.4183  -13.6798 C   0  0  0  0  0  0  0  0  0  0  0  0
  -14.6076   -2.6126  -14.0766 C   0  0  0  0  0  0  0  0  0  0  0  0
  -14.0409   -2.8273  -15.3261 N   0  0  0  0  0  0  0  0  0  0  0  0
  -14.6095   -3.7901  -13.1191 C   0  0  0  0  0  0  0  0  0  0  0  0
  -15.8930   -2.1472  -10.5002 H   0  0  0  0  0  0  0  0  0  0  0  0
  -14.3917   -2.1738  -16.0353 H   0  0  0  0  0  0  0  0  0  0  0  0
  -14.1246   -3.8084  -15.6097 H   0  0  0  0  0  0  0  0  0  0  0  0
  -15.1235   -0.2655  -14.5413 C   0  0  0  0  0  0  0  0  0  0  0  0
  -14.1705    0.4218  -15.1601 N   0  0  0  0  0  0  0  0  0  0  0  0
  -14.8081    1.5125  -15.7346 C   0  0  0  0  0  0  0  0  0  0  0  0
  -14.3095    2.5947  -16.4760 C   0  0  0  0  0  0  0  0  0  0  0  0
  -15.1658    3.6648  -16.8371 C   0  0  0  0  0  0  0  0  0  0  0  0
  -16.5239    3.5823  -16.5059 C   0  0  0  0  0  0  0  0  0  0  0  0
  -17.0628    2.4825  -15.8364 C   0  0  0  0  0  0  0  0  0  0  0  0
  -16.1649    1.4848  -15.4652 C   0  0  0  0  0  0  0  0  0  0  0  0
  -16.3430    0.3127  -14.8029 N   0  0  0  0  0  0  0  0  0  0  0  0
  -17.2351   -0.0773  -14.5222 H   0  0  0  0  0  0  0  0  0  0  0  0
  -14.6146    4.7700  -17.4949 N   0  0  0  0  0  0  0  0  0  0  0  0
  -13.1946    5.1170  -17.2918 C   0  0  0  0  0  0  0  0  0  0  0  0
  -12.9554    6.5572  -17.8118 C   0  0  0  0  0  0  0  0  0  0  0  0
  -13.3381    6.7358  -19.2347 N   0  0  0  0  0  0  0  0  0  0  0  0
  -13.2269    8.1432  -19.6171 C   0  0  0  0  0  0  0  0  0  0  0  0
  -14.7297    6.2671  -19.4443 C   0  0  0  0  0  0  0  0  0  0  0  0
  -14.9746    4.8331  -18.9285 C   0  0  0  0  0  0  0  0  0  0  0  0
  -13.9843   -6.5253  -15.4830 C   0  0  0  0  0  0  0  0  0  0  0  0
  -13.5691   -5.3784  -14.6922 N   0  0  0  0  0  0  0  0  0  0  0  0
  -12.5546   -5.3638  -14.5439 H   0  0  0  0  0  0  0  0  0  0  0  0
 33 34  1  0  0  0
 34  1  1  0  0  0
 34 35  1  0  0  0
  1  2  1  0  0  0
  1 12  2  0  0  0
  2  3  2  0  0  0
  3  4  1  0  0  0
  4  5  2  0  0  0
  5  6  1  0  0  0
  5 12  1  0  0  0
  6  7  1  0  0  0
  6 13  1  0  0  0
  7  8  2  0  0  0
  7  9  1  0  0  0
  9 16  1  0  0  0
  9 10  2  0  0  0
 16 17  2  0  0  0
 16 24  1  0  0  0
 17 18  1  0  0  0
 18 19  1  0  0  0
 18 23  2  0  0  0
 19 20  2  0  0  0
 20 26  1  0  0  0
 20 21  1  0  0  0
 26 27  1  0  0  0
 26 32  1  0  0  0
 27 28  1  0  0  0
 28 29  1  0  0  0
 29 30  1  0  0  0
 29 31  1  0  0  0
 31 32  1  0  0  0
 21 22  2  0  0  0
 22 23  1  0  0  0
 23 24  1  0  0  0
 24 25  1  0  0  0
 10 11  1  0  0  0
 10 12  1  0  0  0
 11 14  1  0  0  0
 11 15  1  0  0  0
M  END
> <minimizedAffinity>
-7.41517

$$$$
