CHEMBL2349009


 37 41  0  0  0  0  0  0  0  0999 V2000
  -23.8960   -1.0790  -13.2895 C   0  0  0  0  0  0  0  0  0  0  0  0
  -24.9890   -1.3764  -14.2452 C   0  0  0  0  0  0  0  0  0  0  0  0
  -26.1962   -1.6216  -13.7149 C   0  0  0  0  0  0  0  0  0  0  0  0
  -26.3591   -1.5704  -12.3122 C   0  0  0  0  0  0  0  0  0  0  0  0
  -27.4155   -1.7502  -11.5509 N   0  0  0  0  0  0  0  0  0  0  0  0
  -26.9760   -1.5957  -10.2677 C   0  0  0  0  0  0  0  0  0  0  0  0
  -25.6280   -1.3220  -10.2402 C   0  0  0  0  0  0  0  0  0  0  0  0
  -25.2386   -1.2831  -11.5525 N   0  0  0  0  0  0  0  0  0  0  0  0
  -23.9796   -1.0201  -11.9982 N   0  0  0  0  0  0  0  0  0  0  0  0
  -27.7771   -1.6809   -9.1520 N   0  0  0  0  0  0  0  0  0  0  0  0
  -28.0302   -2.8509   -8.4551 C   0  0  0  0  0  0  0  0  0  0  0  0
  -27.5043   -3.9408   -8.6560 O   0  0  0  0  0  0  0  0  0  0  0  0
  -28.2233   -0.8252   -8.8584 H   0  0  0  0  0  0  0  0  0  0  0  0
  -29.0719   -2.6631   -7.3370 C   0  0  0  0  0  0  0  0  0  0  0  0
  -28.5851   -1.6225   -6.3110 C   0  0  0  0  0  0  0  0  0  0  0  0
  -29.5244   -1.4868   -5.1153 C   0  0  0  0  0  0  0  0  0  0  0  0
  -29.7709   -2.8331   -4.4463 C   0  0  0  0  0  0  0  0  0  0  0  0
  -30.3085   -3.8474   -5.4468 C   0  0  0  0  0  0  0  0  0  0  0  0
  -29.3792   -4.0034   -6.6475 C   0  0  0  0  0  0  0  0  0  0  0  0
  -22.7159   -0.8787  -14.0059 O   0  0  0  0  0  0  0  0  0  0  0  0
  -20.5076    1.9178  -15.0311 C   0  0  0  0  0  0  0  0  0  0  0  0
  -21.2552    2.9986  -14.5455 C   0  0  0  0  0  0  0  0  0  0  0  0
  -22.4525    2.8049  -13.8586 C   0  0  0  0  0  0  0  0  0  0  0  0
  -22.9370    1.5222  -13.6670 C   0  0  0  0  0  0  0  0  0  0  0  0
  -22.2524    0.4400  -14.2205 C   0  0  0  0  0  0  0  0  0  0  0  0
  -21.0315    0.6230  -14.8905 C   0  0  0  0  0  0  0  0  0  0  0  0
  -17.8663    1.6709  -13.8079 O   0  0  0  0  0  0  0  0  0  0  0  0
  -18.0218    1.9929  -14.9804 C   0  0  0  0  0  0  0  0  0  0  0  0
  -19.2378    2.1018  -15.6467 N   0  0  0  0  0  0  0  0  0  0  0  0
  -19.2228    2.1547  -16.6576 H   0  0  0  0  0  0  0  0  0  0  0  0
  -16.7824    2.2263  -15.7647 C   0  0  0  0  0  0  0  0  0  0  0  0
  -16.5712    3.5232  -16.2690 C   0  0  0  0  0  0  0  0  0  0  0  0
  -15.4802    3.8000  -17.0928 C   0  0  0  0  0  0  0  0  0  0  0  0
  -14.5985    2.7768  -17.4253 C   0  0  0  0  0  0  0  0  0  0  0  0
  -14.8167    1.4921  -16.9306 C   0  0  0  0  0  0  0  0  0  0  0  0
  -13.9762    0.5093  -17.2794 F   0  0  0  0  0  0  0  0  0  0  0  0
  -15.8989    1.2011  -16.1009 C   0  0  0  0  0  0  0  0  0  0  0  0
 27 28  2  0  0  0
 28 29  1  0  0  0
 28 31  1  0  0  0
 29 21  1  0  0  0
 29 30  1  0  0  0
 21 22  1  0  0  0
 21 26  2  0  0  0
 22 23  2  0  0  0
 23 24  1  0  0  0
 24 25  2  0  0  0
 25 20  1  0  0  0
 25 26  1  0  0  0
 20  1  1  0  0  0
  1  2  1  0  0  0
  1  9  2  0  0  0
  2  3  2  0  0  0
  3  4  1  0  0  0
  4  5  2  0  0  0
  4  8  1  0  0  0
  5  6  1  0  0  0
  6 10  1  0  0  0
  6  7  2  0  0  0
 10 11  1  0  0  0
 10 13  1  0  0  0
 11 12  2  0  0  0
 11 14  1  0  0  0
 14 15  1  0  0  0
 14 19  1  0  0  0
 15 16  1  0  0  0
 16 17  1  0  0  0
 17 18  1  0  0  0
 18 19  1  0  0  0
  7  8  1  0  0  0
  8  9  1  0  0  0
 31 32  1  0  0  0
 31 37  2  0  0  0
 32 33  2  0  0  0
 33 34  1  0  0  0
 34 35  2  0  0  0
 35 36  1  0  0  0
 35 37  1  0  0  0
M  END
> <minimizedAffinity>
-11.27262

$$$$
