CHEMBL69649


 31 34  0  0  0  0  0  0  0  0999 V2000
  -29.3879   -7.8282   -7.6668 C   0  0  0  0  0  0  0  0  0  0  0  0
  -28.4324   -8.2737   -8.5652 C   0  0  0  0  0  0  0  0  0  0  0  0
  -28.9026   -9.3880   -9.2262 N   0  0  0  0  0  0  0  0  0  0  0  0
  -30.1601   -9.6778   -8.7389 C   0  0  0  0  0  0  0  0  0  0  0  0
  -30.9273  -10.7023   -9.1455 N   0  0  0  0  0  0  0  0  0  0  0  0
  -32.1040  -10.7429   -8.5077 C   0  0  0  0  0  0  0  0  0  0  0  0
  -32.5641   -9.9000   -7.5713 N   0  0  0  0  0  0  0  0  0  0  0  0
  -31.7807   -8.8732   -7.1961 C   0  0  0  0  0  0  0  0  0  0  0  0
  -32.3390   -8.0225   -6.2484 N   0  0  0  0  0  0  0  0  0  0  0  0
  -30.4995   -8.7304   -7.7721 C   0  0  0  0  0  0  0  0  0  0  0  0
  -33.3272   -8.2244   -6.1486 H   0  0  0  0  0  0  0  0  0  0  0  0
  -32.1127   -7.0488   -6.4042 H   0  0  0  0  0  0  0  0  0  0  0  0
  -28.4322   -4.3240   -5.4282 C   0  0  0  0  0  0  0  0  0  0  0  0
  -28.5639   -5.5485   -4.7770 C   0  0  0  0  0  0  0  0  0  0  0  0
  -28.9047   -6.6929   -5.5044 C   0  0  0  0  0  0  0  0  0  0  0  0
  -29.2027   -6.6153   -6.8728 C   0  0  0  0  0  0  0  0  0  0  0  0
  -29.2553   -5.3497   -7.4623 C   0  0  0  0  0  0  0  0  0  0  0  0
  -28.8291   -4.2189   -6.7605 C   0  0  0  0  0  0  0  0  0  0  0  0
  -27.9895   -3.1579   -4.8524 O   0  0  0  0  0  0  0  0  0  0  0  0
  -29.1869    0.5616   -6.3305 C   0  0  0  0  0  0  0  0  0  0  0  0
  -28.0104   -0.0043   -6.8229 C   0  0  0  0  0  0  0  0  0  0  0  0
  -27.5931   -1.2639   -6.3743 C   0  0  0  0  0  0  0  0  0  0  0  0
  -28.3182   -1.9349   -5.3868 C   0  0  0  0  0  0  0  0  0  0  0  0
  -29.5164   -1.3895   -4.9291 C   0  0  0  0  0  0  0  0  0  0  0  0
  -29.9469   -0.1479   -5.3985 C   0  0  0  0  0  0  0  0  0  0  0  0
  -31.1187    1.9077   -6.6470 C   0  0  0  0  0  0  0  0  0  0  0  0
  -29.7034    1.7780   -6.6804 O   0  0  0  0  0  0  0  0  0  0  0  0
  -28.1646  -10.1537  -10.2577 C   0  0  0  0  0  0  0  0  0  0  0  0
  -28.9800  -10.3197  -11.5668 C   0  0  0  0  0  0  0  0  0  0  0  0
  -26.8596   -9.4217  -10.6304 C   0  0  0  0  0  0  0  0  0  0  0  0
  -27.8403  -11.5783   -9.7610 C   0  0  0  0  0  0  0  0  0  0  0  0
 26 27  1  0  0  0
 27 20  1  0  0  0
 20 21  1  0  0  0
 20 25  2  0  0  0
 21 22  2  0  0  0
 22 23  1  0  0  0
 23 19  1  0  0  0
 23 24  2  0  0  0
 19 13  1  0  0  0
 13 14  1  0  0  0
 13 18  2  0  0  0
 14 15  2  0  0  0
 15 16  1  0  0  0
 16  1  1  0  0  0
 16 17  2  0  0  0
  1  2  2  0  0  0
  1 10  1  0  0  0
  2  3  1  0  0  0
  3 28  1  0  0  0
  3  4  1  0  0  0
 28 29  1  0  0  0
 28 30  1  0  0  0
 28 31  1  0  0  0
  4  5  1  0  0  0
  4 10  2  0  0  0
  5  6  2  0  0  0
  6  7  1  0  0  0
  7  8  2  0  0  0
  8  9  1  0  0  0
  8 10  1  0  0  0
  9 11  1  0  0  0
  9 12  1  0  0  0
 17 18  1  0  0  0
 24 25  1  0  0  0
M  END
> <minimizedAffinity>
-9.03754

$$$$
