CHEMBL4581503


 49 54  0  0  0  0  0  0  0  0999 V2000
  -29.6340   -5.5501   -5.2450 O   0  0  0  0  0  0  0  0  0  0  0  0
  -28.7601   -6.5963   -5.0309 C   0  0  0  0  0  0  0  0  0  0  0  0
  -27.5593   -6.3051   -4.4728 N   0  0  0  0  0  0  0  0  0  0  0  0
  -26.7698   -7.3447   -4.2335 C   0  0  0  0  0  0  0  0  0  0  0  0
  -27.0612   -8.6107   -4.5143 N   0  0  0  0  0  0  0  0  0  0  0  0
  -28.2409   -8.8429   -5.1072 C   0  0  0  0  0  0  0  0  0  0  0  0
  -28.5144  -10.1515   -5.4011 C   0  0  0  0  0  0  0  0  0  0  0  0
  -29.6898  -10.5624   -6.0387 C   0  0  0  0  0  0  0  0  0  0  0  0
  -30.6447   -9.5959   -6.3845 C   0  0  0  0  0  0  0  0  0  0  0  0
  -30.4010   -8.2510   -6.0568 C   0  0  0  0  0  0  0  0  0  0  0  0
  -29.1761   -7.8669   -5.4203 C   0  0  0  0  0  0  0  0  0  0  0  0
  -31.2950   -7.2480   -6.3486 O   0  0  0  0  0  0  0  0  0  0  0  0
  -32.5956   -7.7345   -6.6809 C   0  0  0  0  0  0  0  0  0  0  0  0
  -32.4837   -8.8992   -7.6425 C   0  0  0  0  0  0  0  0  0  0  0  0
  -31.7945   -9.9960   -7.0261 O   0  0  0  0  0  0  0  0  0  0  0  0
  -29.9236  -11.8865   -6.3523 O   0  0  0  0  0  0  0  0  0  0  0  0
  -28.9325  -12.4657   -7.2162 C   0  0  0  0  0  0  0  0  0  0  0  0
  -29.3428  -12.4430   -8.6750 C   0  0  0  0  0  0  0  0  0  0  0  0
  -28.3646  -11.5893   -9.4764 C   0  0  0  0  0  0  0  0  0  0  0  0
  -28.9246  -10.3052   -9.9237 N   0  0  0  0  0  0  0  0  0  0  0  0
  -28.7003  -10.1431  -11.3802 C   0  0  0  0  0  0  0  0  0  0  0  0
  -27.2390   -9.8252  -11.7566 C   0  0  0  0  0  0  0  0  0  0  0  0
  -26.7302   -8.6936  -11.0372 O   0  0  0  0  0  0  0  0  0  0  0  0
  -26.8719   -8.8762   -9.6227 C   0  0  0  0  0  0  0  0  0  0  0  0
  -28.3408   -9.1247   -9.2501 C   0  0  0  0  0  0  0  0  0  0  0  0
  -28.5359   -2.5903   -7.9724 C   0  0  0  0  0  0  0  0  0  0  0  0
  -29.2113   -3.7611   -8.3517 C   0  0  0  0  0  0  0  0  0  0  0  0
  -29.5754   -4.7191   -7.4139 C   0  0  0  0  0  0  0  0  0  0  0  0
  -29.2412   -4.5370   -6.0807 C   0  0  0  0  0  0  0  0  0  0  0  0
  -28.6101   -3.3602   -5.6690 C   0  0  0  0  0  0  0  0  0  0  0  0
  -28.2523   -2.3961   -6.6136 C   0  0  0  0  0  0  0  0  0  0  0  0
  -27.4883   -0.9469   -6.0570 Cl  0  0  0  0  0  0  0  0  0  0  0  0
  -27.2322   -3.1244  -10.4383 O   0  0  0  0  0  0  0  0  0  0  0  0
  -27.3981   -1.9601  -10.0692 C   0  0  0  0  0  0  0  0  0  0  0  0
  -26.8735   -0.8705  -10.7247 N   0  0  0  0  0  0  0  0  0  0  0  0
  -28.1063   -1.6369   -8.9352 N   0  0  0  0  0  0  0  0  0  0  0  0
  -26.8609    0.0185  -10.2365 H   0  0  0  0  0  0  0  0  0  0  0  0
  -28.5375   -0.7212   -8.8878 H   0  0  0  0  0  0  0  0  0  0  0  0
  -26.0641   -0.9616  -11.8885 C   0  0  0  0  0  0  0  0  0  0  0  0
  -24.7689   -0.4340  -11.9476 C   0  0  0  0  0  0  0  0  0  0  0  0
  -23.9902   -0.4954  -13.1116 C   0  0  0  0  0  0  0  0  0  0  0  0
  -24.5265   -1.1208  -14.2444 C   0  0  0  0  0  0  0  0  0  0  0  0
  -25.8125   -1.6694  -14.2010 C   0  0  0  0  0  0  0  0  0  0  0  0
  -26.5663   -1.5912  -13.0282 C   0  0  0  0  0  0  0  0  0  0  0  0
  -27.8047   -2.1090  -13.0146 F   0  0  0  0  0  0  0  0  0  0  0  0
  -22.5958    0.0961  -13.1090 C   0  0  0  0  0  0  0  0  0  0  0  0
  -22.5707    1.4415  -13.3111 F   0  0  0  0  0  0  0  0  0  0  0  0
  -21.9504   -0.1180  -11.9332 F   0  0  0  0  0  0  0  0  0  0  0  0
  -21.8042   -0.4404  -14.0797 F   0  0  0  0  0  0  0  0  0  0  0  0
 33 34  2  0  0  0
 34 35  1  0  0  0
 34 36  1  0  0  0
 35 39  1  0  0  0
 35 37  1  0  0  0
 39 40  1  0  0  0
 39 44  2  0  0  0
 40 41  2  0  0  0
 41 46  1  0  0  0
 41 42  1  0  0  0
 46 47  1  0  0  0
 46 48  1  0  0  0
 46 49  1  0  0  0
 42 43  2  0  0  0
 43 44  1  0  0  0
 44 45  1  0  0  0
 36 26  1  0  0  0
 36 38  1  0  0  0
 26 27  1  0  0  0
 26 31  2  0  0  0
 27 28  2  0  0  0
 28 29  1  0  0  0
 29  1  1  0  0  0
 29 30  2  0  0  0
  1  2  1  0  0  0
  2  3  1  0  0  0
  2 11  2  0  0  0
  3  4  2  0  0  0
  4  5  1  0  0  0
  5  6  2  0  0  0
  6  7  1  0  0  0
  6 11  1  0  0  0
  7  8  2  0  0  0
  8 16  1  0  0  0
  8  9  1  0  0  0
 16 17  1  0  0  0
 17 18  1  0  0  0
 18 19  1  0  0  0
 19 20  1  0  0  0
 20 21  1  0  0  0
 20 25  1  0  0  0
 21 22  1  0  0  0
 22 23  1  0  0  0
 23 24  1  0  0  0
 24 25  1  0  0  0
  9 10  2  0  0  0
  9 15  1  0  0  0
 10 11  1  0  0  0
 10 12  1  0  0  0
 12 13  1  0  0  0
 13 14  1  0  0  0
 14 15  1  0  0  0
 30 31  1  0  0  0
 31 32  1  0  0  0
M  END
> <minimizedAffinity>
-9.78395

$$$$
