CHEMBL1290362


 28 30  0  0  0  0  0  0  0  0999 V2000
  -29.5054   -5.0336   -7.1206 C   0  0  0  0  0  0  0  0  0  0  0  0
  -28.9997   -6.2136   -7.4161 N   0  0  0  0  0  0  0  0  0  0  0  0
  -29.1466   -6.9330   -6.2670 C   0  0  0  0  0  0  0  0  0  0  0  0
  -29.8082   -6.2283   -5.3000 C   0  0  0  0  0  0  0  0  0  0  0  0
  -30.1275   -6.7847   -4.0313 C   0  0  0  0  0  0  0  0  0  0  0  0
  -30.8558   -6.2670   -3.1916 O   0  0  0  0  0  0  0  0  0  0  0  0
  -29.5427   -8.0114   -3.8336 N   0  0  0  0  0  0  0  0  0  0  0  0
  -28.8717   -8.7747   -4.7692 C   0  0  0  0  0  0  0  0  0  0  0  0
  -28.4813   -9.8958   -4.4473 O   0  0  0  0  0  0  0  0  0  0  0  0
  -28.6953   -8.2181   -6.0347 N   0  0  0  0  0  0  0  0  0  0  0  0
  -28.0164   -8.9700   -7.0721 C   0  0  0  0  0  0  0  0  0  0  0  0
  -29.9843   -4.9752   -5.8280 N   0  0  0  0  0  0  0  0  0  0  0  0
  -29.7118   -8.4555   -2.9445 H   0  0  0  0  0  0  0  0  0  0  0  0
  -29.5143   -3.6562   -8.1626 S   0  0  0  0  0  0  0  0  0  0  0  0
  -27.7499   -3.3871   -8.4776 C   0  0  0  0  0  0  0  0  0  0  0  0
  -27.5055   -1.9324   -8.8374 C   0  0  0  0  0  0  0  0  0  0  0  0
  -28.1540   -0.9677   -8.4540 O   0  0  0  0  0  0  0  0  0  0  0  0
  -26.4826   -1.8555   -9.7420 O   0  0  0  0  0  0  0  0  0  0  0  0
  -25.9422   -0.8309  -11.8316 C   0  0  0  0  0  0  0  0  0  0  0  0
  -26.8955   -1.7708  -11.1155 C   0  0  0  0  0  0  0  0  0  0  0  0
  -30.5079   -3.8058   -5.1265 C   0  0  0  0  0  0  0  0  0  0  0  0
  -29.5075   -2.6723   -5.1133 C   0  0  0  0  0  0  0  0  0  0  0  0
  -28.1492   -2.9256   -4.8787 C   0  0  0  0  0  0  0  0  0  0  0  0
  -27.2313   -1.8772   -4.8279 C   0  0  0  0  0  0  0  0  0  0  0  0
  -27.6563   -0.5613   -5.0111 C   0  0  0  0  0  0  0  0  0  0  0  0
  -29.0032   -0.2850   -5.2591 C   0  0  0  0  0  0  0  0  0  0  0  0
  -29.4831    1.1227   -5.4529 C   0  0  0  0  0  0  0  0  0  0  0  0
  -29.9165   -1.3458   -5.3244 C   0  0  0  0  0  0  0  0  0  0  0  0
 19 20  1  0  0  0
 20 18  1  0  0  0
 18 16  1  0  0  0
 16 17  2  0  0  0
 16 15  1  0  0  0
 15 14  1  0  0  0
 14  1  1  0  0  0
  1  2  2  0  0  0
  1 12  1  0  0  0
  2  3  1  0  0  0
  3  4  2  0  0  0
  3 10  1  0  0  0
  4  5  1  0  0  0
  4 12  1  0  0  0
  5  6  2  0  0  0
  5  7  1  0  0  0
  7  8  1  0  0  0
  7 13  1  0  0  0
  8  9  2  0  0  0
  8 10  1  0  0  0
 10 11  1  0  0  0
 12 21  1  0  0  0
 21 22  1  0  0  0
 22 23  1  0  0  0
 22 28  2  0  0  0
 23 24  2  0  0  0
 24 25  1  0  0  0
 25 26  2  0  0  0
 26 27  1  0  0  0
 26 28  1  0  0  0
M  END
> <minimizedAffinity>
-7.81494

$$$$
