CHEMBL249519


 35 39  0  0  0  0  0  0  0  0999 V2000
  -13.6215   -4.4658  -12.3616 C   0  0  0  0  0  0  0  0  0  0  0  0
  -13.8997   -4.8597  -11.0401 C   0  0  0  0  0  0  0  0  0  0  0  0
  -13.9740   -6.1309  -10.5490 N   0  0  0  0  0  0  0  0  0  0  0  0
  -13.8150   -7.0563  -11.5122 C   0  0  0  0  0  0  0  0  0  0  0  0
  -13.8746   -8.4120  -11.3630 N   0  0  0  0  0  0  0  0  0  0  0  0
  -13.7698   -9.0994  -12.5253 N   0  0  0  0  0  0  0  0  0  0  0  0
  -13.5867   -8.1252  -13.4349 C   0  0  0  0  0  0  0  0  0  0  0  0
  -13.5548   -6.8366  -12.8492 C   0  0  0  0  0  0  0  0  0  0  0  0
  -13.3787   -5.5093  -13.2683 C   0  0  0  0  0  0  0  0  0  0  0  0
  -14.0026   -8.9173  -10.4954 H   0  0  0  0  0  0  0  0  0  0  0  0
  -13.4869   -8.4107  -14.8952 C   0  0  0  0  0  0  0  0  0  0  0  0
  -13.5511   -7.5100  -15.8543 N   0  0  0  0  0  0  0  0  0  0  0  0
  -13.4402   -8.2144  -17.0313 C   0  0  0  0  0  0  0  0  0  0  0  0
  -13.4268   -7.7362  -18.3564 C   0  0  0  0  0  0  0  0  0  0  0  0
  -13.2855   -8.6948  -19.3820 C   0  0  0  0  0  0  0  0  0  0  0  0
  -13.1636  -10.0596  -19.0996 C   0  0  0  0  0  0  0  0  0  0  0  0
  -13.1731  -10.5338  -17.7849 C   0  0  0  0  0  0  0  0  0  0  0  0
  -13.3112   -9.5772  -16.7789 C   0  0  0  0  0  0  0  0  0  0  0  0
  -13.3476   -9.6713  -15.4115 N   0  0  0  0  0  0  0  0  0  0  0  0
  -13.2881  -10.5101  -14.8514 H   0  0  0  0  0  0  0  0  0  0  0  0
  -13.4985   -6.2687  -18.6766 C   0  0  0  0  0  0  0  0  0  0  0  0
  -14.7697   -5.9438  -19.2412 O   0  0  0  0  0  0  0  0  0  0  0  0
  -14.6949   -4.7490  -20.0082 C   0  0  0  0  0  0  0  0  0  0  0  0
  -14.4444   -0.9299  -13.6787 C   0  0  0  0  0  0  0  0  0  0  0  0
  -13.1710   -0.3837  -13.4808 C   0  0  0  0  0  0  0  0  0  0  0  0
  -12.1236   -1.0626  -12.9671 N   0  0  0  0  0  0  0  0  0  0  0  0
  -12.3472   -2.3492  -12.6385 C   0  0  0  0  0  0  0  0  0  0  0  0
  -13.5646   -3.0379  -12.7660 C   0  0  0  0  0  0  0  0  0  0  0  0
  -14.6553   -2.2842  -13.2909 C   0  0  0  0  0  0  0  0  0  0  0  0
  -16.0450   -2.8682  -13.4294 C   0  0  0  0  0  0  0  0  0  0  0  0
  -15.4861   -0.0391  -14.3308 C   0  0  0  0  0  0  0  0  0  0  0  0
  -16.3234    0.6399  -13.3481 N   0  0  0  0  0  0  0  0  0  0  0  0
  -16.7745   -0.0477  -12.7576 H   0  0  0  0  0  0  0  0  0  0  0  0
  -18.0448    0.5999  -15.0242 C   0  0  0  0  0  0  0  0  0  0  0  0
  -17.3802    1.4477  -13.9460 C   0  0  0  0  0  0  0  0  0  0  0  0
 34 35  1  0  0  0
 35 32  1  0  0  0
 32 31  1  0  0  0
 32 33  1  0  0  0
 31 24  1  0  0  0
 24 25  1  0  0  0
 24 29  2  0  0  0
 25 26  2  0  0  0
 26 27  1  0  0  0
 27 28  2  0  0  0
 28  1  1  0  0  0
 28 29  1  0  0  0
  1  2  1  0  0  0
  1  9  2  0  0  0
  2  3  2  0  0  0
  3  4  1  0  0  0
  4  5  1  0  0  0
  4  8  2  0  0  0
  5  6  1  0  0  0
  5 10  1  0  0  0
  6  7  2  0  0  0
  7 11  1  0  0  0
  7  8  1  0  0  0
 11 12  2  0  0  0
 11 19  1  0  0  0
 12 13  1  0  0  0
 13 14  1  0  0  0
 13 18  2  0  0  0
 14 21  1  0  0  0
 14 15  2  0  0  0
 21 22  1  0  0  0
 22 23  1  0  0  0
 15 16  1  0  0  0
 16 17  2  0  0  0
 17 18  1  0  0  0
 18 19  1  0  0  0
 19 20  1  0  0  0
  8  9  1  0  0  0
 29 30  1  0  0  0
M  END
> <minimizedAffinity>
-7.13637

$$$$
