CHEMBL71541


 31 34  0  0  0  0  0  0  0  0999 V2000
  -29.5762   -6.7534   -7.0483 C   0  0  0  0  0  0  0  0  0  0  0  0
  -29.2556   -5.5586   -7.7064 C   0  0  0  0  0  0  0  0  0  0  0  0
  -29.4650   -4.3246   -7.0847 C   0  0  0  0  0  0  0  0  0  0  0  0
  -30.0928   -4.2684   -5.8393 C   0  0  0  0  0  0  0  0  0  0  0  0
  -30.3103   -5.4481   -5.1340 C   0  0  0  0  0  0  0  0  0  0  0  0
  -30.0070   -6.6796   -5.7194 C   0  0  0  0  0  0  0  0  0  0  0  0
  -28.6368   -9.6896   -8.9809 N   0  0  0  0  0  0  0  0  0  0  0  0
  -28.3943   -8.4458   -8.4507 C   0  0  0  0  0  0  0  0  0  0  0  0
  -29.5115   -8.0406   -7.7387 C   0  0  0  0  0  0  0  0  0  0  0  0
  -30.4959   -9.0866   -7.8765 C   0  0  0  0  0  0  0  0  0  0  0  0
  -31.8215   -9.3366   -7.4623 C   0  0  0  0  0  0  0  0  0  0  0  0
  -32.6208   -8.4611   -6.7364 N   0  0  0  0  0  0  0  0  0  0  0  0
  -32.4066  -10.5050   -7.7910 N   0  0  0  0  0  0  0  0  0  0  0  0
  -31.7073  -11.3875   -8.5213 C   0  0  0  0  0  0  0  0  0  0  0  0
  -30.4619  -11.2612   -8.9961 N   0  0  0  0  0  0  0  0  0  0  0  0
  -29.9045  -10.0904   -8.6410 C   0  0  0  0  0  0  0  0  0  0  0  0
  -32.4925   -7.4899   -6.9907 H   0  0  0  0  0  0  0  0  0  0  0  0
  -33.5805   -8.7873   -6.7388 H   0  0  0  0  0  0  0  0  0  0  0  0
  -27.2965   -9.8302  -11.0701 C   0  0  0  0  0  0  0  0  0  0  0  0
  -27.6784  -10.4888   -9.7430 C   0  0  0  0  0  0  0  0  0  0  0  0
  -26.4400  -10.8025   -8.9032 C   0  0  0  0  0  0  0  0  0  0  0  0
  -30.5012   -3.1104   -5.2199 O   0  0  0  0  0  0  0  0  0  0  0  0
  -29.6753   -2.0037   -5.2104 C   0  0  0  0  0  0  0  0  0  0  0  0
  -29.8253   -0.9262   -6.0972 C   0  0  0  0  0  0  0  0  0  0  0  0
  -28.9019    0.1171   -6.1086 C   0  0  0  0  0  0  0  0  0  0  0  0
  -27.8594    0.1293   -5.1894 C   0  0  0  0  0  0  0  0  0  0  0  0
  -27.7617   -0.8877   -4.2374 C   0  0  0  0  0  0  0  0  0  0  0  0
  -28.6720   -1.9590   -4.2292 C   0  0  0  0  0  0  0  0  0  0  0  0
  -28.5707   -2.9923   -3.1349 C   0  0  0  0  0  0  0  0  0  0  0  0
  -29.7724   -3.0452   -2.3754 O   0  0  0  0  0  0  0  0  0  0  0  0
  -30.0740   -2.1275   -2.2678 H   0  0  0  0  0  0  0  0  0  0  0  0
 19 20  1  0  0  0
 20 21  1  0  0  0
 20  7  1  0  0  0
  7  8  1  0  0  0
  7 16  1  0  0  0
  8  9  2  0  0  0
  9  1  1  0  0  0
  9 10  1  0  0  0
  1  2  1  0  0  0
  1  6  2  0  0  0
  2  3  2  0  0  0
  3  4  1  0  0  0
  4 22  1  0  0  0
  4  5  2  0  0  0
 22 23  1  0  0  0
 23 24  1  0  0  0
 23 28  2  0  0  0
 24 25  2  0  0  0
 25 26  1  0  0  0
 26 27  2  0  0  0
 27 28  1  0  0  0
 28 29  1  0  0  0
 29 30  1  0  0  0
 30 31  1  0  0  0
  5  6  1  0  0  0
 10 11  1  0  0  0
 10 16  2  0  0  0
 11 12  1  0  0  0
 11 13  2  0  0  0
 12 17  1  0  0  0
 12 18  1  0  0  0
 13 14  1  0  0  0
 14 15  2  0  0  0
 15 16  1  0  0  0
M  END
> <minimizedAffinity>
-8.99448

$$$$
