CHEMBL4239930


 23 25  0  0  0  0  0  0  0  0999 V2000
  -16.2985    0.5458  -14.7036 C   0  0  0  0  0  0  0  0  0  0  0  0
  -17.5502    0.2247  -14.5907 N   0  0  0  0  0  0  0  0  0  0  0  0
  -18.5181    1.2002  -14.9022 C   0  0  0  0  0  0  0  0  0  0  0  0
  -19.8714    0.8722  -14.7877 C   0  0  0  0  0  0  0  0  0  0  0  0
  -20.8625    1.8213  -15.0598 C   0  0  0  0  0  0  0  0  0  0  0  0
  -20.5101    3.1137  -15.4514 C   0  0  0  0  0  0  0  0  0  0  0  0
  -19.1645    3.4557  -15.5801 C   0  0  0  0  0  0  0  0  0  0  0  0
  -18.1825    2.4948  -15.3086 C   0  0  0  0  0  0  0  0  0  0  0  0
  -16.7513    2.8120  -15.4327 C   0  0  0  0  0  0  0  0  0  0  0  0
  -16.3532    3.9227  -15.7522 O   0  0  0  0  0  0  0  0  0  0  0  0
  -15.8927    1.7787  -15.1513 N   0  0  0  0  0  0  0  0  0  0  0  0
  -14.9074    2.0040  -15.1700 H   0  0  0  0  0  0  0  0  0  0  0  0
  -15.2056   -0.4740  -14.3898 C   0  0  0  0  0  0  0  0  0  0  0  0
  -15.1579   -0.8253  -12.5954 S   0  0  0  0  0  0  0  0  0  0  0  0
  -15.8799   -2.5798  -10.0753 N   0  0  0  0  0  0  0  0  0  0  0  0
  -15.9821   -3.2094  -11.3313 C   0  0  0  0  0  0  0  0  0  0  0  0
  -16.4460   -4.5329  -11.3829 C   0  0  0  0  0  0  0  0  0  0  0  0
  -16.6462   -5.1775  -12.6048 C   0  0  0  0  0  0  0  0  0  0  0  0
  -16.4420   -4.4853  -13.7945 C   0  0  0  0  0  0  0  0  0  0  0  0
  -16.0351   -3.1504  -13.7606 C   0  0  0  0  0  0  0  0  0  0  0  0
  -15.8196   -2.4959  -12.5371 C   0  0  0  0  0  0  0  0  0  0  0  0
  -15.7025   -3.2249   -9.3115 H   0  0  0  0  0  0  0  0  0  0  0  0
  -15.2084   -1.8143  -10.0933 H   0  0  0  0  0  0  0  0  0  0  0  0
 15 16  1  0  0  0
 15 22  1  0  0  0
 15 23  1  0  0  0
 16 17  1  0  0  0
 16 21  2  0  0  0
 17 18  2  0  0  0
 18 19  1  0  0  0
 19 20  2  0  0  0
 20 21  1  0  0  0
 21 14  1  0  0  0
 14 13  1  0  0  0
 13  1  1  0  0  0
  1  2  2  0  0  0
  1 11  1  0  0  0
  2  3  1  0  0  0
  3  4  1  0  0  0
  3  8  2  0  0  0
  4  5  2  0  0  0
  5  6  1  0  0  0
  6  7  2  0  0  0
  7  8  1  0  0  0
  8  9  1  0  0  0
  9 10  2  0  0  0
  9 11  1  0  0  0
 11 12  1  0  0  0
M  END
> <minimizedAffinity>
-7.85723

$$$$
