CHEMBL3589749


 32 35  0  0  0  0  0  0  0  0999 V2000
  -27.9190   -2.6533   -8.7780 C   0  0  0  0  0  0  0  0  0  0  0  0
  -28.7053   -3.6654   -8.2607 C   0  0  0  0  0  0  0  0  0  0  0  0
  -29.4910   -3.4379   -7.1559 C   0  0  0  0  0  0  0  0  0  0  0  0
  -29.3879   -2.2736   -6.3914 C   0  0  0  0  0  0  0  0  0  0  0  0
  -28.6166   -1.2370   -6.9065 C   0  0  0  0  0  0  0  0  0  0  0  0
  -27.8900   -1.4213   -8.1062 C   0  0  0  0  0  0  0  0  0  0  0  0
  -30.0985   -2.1985   -5.1675 N   0  0  0  0  0  0  0  0  0  0  0  0
  -29.5464   -2.8720   -4.1903 C   0  0  0  0  0  0  0  0  0  0  0  0
  -28.0290   -2.9198   -3.8626 C   0  0  0  0  0  0  0  0  0  0  0  0
  -27.2681   -1.9787   -3.8712 O   0  0  0  0  0  0  0  0  0  0  0  0
  -27.7367   -4.2511   -3.6472 N   0  0  0  0  0  0  0  0  0  0  0  0
  -28.8799   -5.0294   -3.8009 C   0  0  0  0  0  0  0  0  0  0  0  0
  -28.8992   -6.3651   -4.1596 C   0  0  0  0  0  0  0  0  0  0  0  0
  -30.1230   -6.8924   -4.5888 C   0  0  0  0  0  0  0  0  0  0  0  0
  -31.2890   -6.1055   -4.5829 C   0  0  0  0  0  0  0  0  0  0  0  0
  -32.4299   -6.6354   -5.0414 F   0  0  0  0  0  0  0  0  0  0  0  0
  -31.2648   -4.7609   -4.2275 C   0  0  0  0  0  0  0  0  0  0  0  0
  -30.0351   -4.2364   -3.8742 C   0  0  0  0  0  0  0  0  0  0  0  0
  -26.7850   -4.5876   -3.6088 H   0  0  0  0  0  0  0  0  0  0  0  0
  -25.6224   -1.1523   -9.6879 O   0  0  0  0  0  0  0  0  0  0  0  0
  -26.1228   -2.0411  -10.3678 C   0  0  0  0  0  0  0  0  0  0  0  0
  -25.7318   -2.3218  -11.6564 N   0  0  0  0  0  0  0  0  0  0  0  0
  -27.1609   -2.8722   -9.9486 N   0  0  0  0  0  0  0  0  0  0  0  0
  -26.1322   -3.1357  -12.0883 H   0  0  0  0  0  0  0  0  0  0  0  0
  -27.2915   -3.7519  -10.4209 H   0  0  0  0  0  0  0  0  0  0  0  0
  -24.8193   -1.5699  -12.4351 C   0  0  0  0  0  0  0  0  0  0  0  0
  -25.0338   -1.2026  -13.7769 C   0  0  0  0  0  0  0  0  0  0  0  0
  -24.0560   -0.5008  -14.4849 C   0  0  0  0  0  0  0  0  0  0  0  0
  -22.8712   -0.1387  -13.8552 C   0  0  0  0  0  0  0  0  0  0  0  0
  -21.6629    0.7192  -14.7272 Cl  0  0  0  0  0  0  0  0  0  0  0  0
  -22.6566   -0.4765  -12.5229 C   0  0  0  0  0  0  0  0  0  0  0  0
  -23.6265   -1.1920  -11.8173 C   0  0  0  0  0  0  0  0  0  0  0  0
 20 21  2  0  0  0
 21 22  1  0  0  0
 21 23  1  0  0  0
 22 26  1  0  0  0
 22 24  1  0  0  0
 26 27  1  0  0  0
 26 32  2  0  0  0
 27 28  2  0  0  0
 28 29  1  0  0  0
 29 30  1  0  0  0
 29 31  2  0  0  0
 31 32  1  0  0  0
 23  1  1  0  0  0
 23 25  1  0  0  0
  1  2  1  0  0  0
  1  6  2  0  0  0
  2  3  2  0  0  0
  3  4  1  0  0  0
  4  7  1  0  0  0
  4  5  2  0  0  0
  7  8  2  0  0  0
  8  9  1  0  0  0
  8 18  1  0  0  0
  9 10  2  0  0  0
  9 11  1  0  0  0
 11 12  1  0  0  0
 11 19  1  0  0  0
 12 13  1  0  0  0
 12 18  2  0  0  0
 13 14  2  0  0  0
 14 15  1  0  0  0
 15 16  1  0  0  0
 15 17  2  0  0  0
 17 18  1  0  0  0
  5  6  1  0  0  0
M  END
> <minimizedAffinity>
-10.51199

$$$$
