CHEMBL522629


 27 30  0  0  0  0  0  0  0  0999 V2000
  -15.8878    1.4558  -14.7766 C   0  0  0  0  0  0  0  0  0  0  0  0
  -14.7184    1.8873  -15.4419 C   0  0  0  0  0  0  0  0  0  0  0  0
  -14.7361    2.9583  -16.3313 C   0  0  0  0  0  0  0  0  0  0  0  0
  -15.9343    3.5975  -16.5984 C   0  0  0  0  0  0  0  0  0  0  0  0
  -17.0968    3.2007  -15.9343 C   0  0  0  0  0  0  0  0  0  0  0  0
  -17.0988    2.1666  -14.9730 C   0  0  0  0  0  0  0  0  0  0  0  0
  -15.7228   -1.7465  -13.1056 N   0  0  0  0  0  0  0  0  0  0  0  0
  -16.0199   -1.0389  -14.2479 C   0  0  0  0  0  0  0  0  0  0  0  0
  -15.7470    0.2720  -13.9398 C   0  0  0  0  0  0  0  0  0  0  0  0
  -15.3183    0.3364  -12.6382 N   0  0  0  0  0  0  0  0  0  0  0  0
  -15.3066   -0.8902  -12.1398 N   0  0  0  0  0  0  0  0  0  0  0  0
  -14.9192   -6.5092  -14.8476 Cl  0  0  0  0  0  0  0  0  0  0  0  0
  -15.4492   -5.4106  -13.6339 C   0  0  0  0  0  0  0  0  0  0  0  0
  -15.9357   -5.9025  -12.4244 C   0  0  0  0  0  0  0  0  0  0  0  0
  -16.3647   -5.0161  -11.4374 C   0  0  0  0  0  0  0  0  0  0  0  0
  -16.3008   -3.6369  -11.6541 C   0  0  0  0  0  0  0  0  0  0  0  0
  -15.8046   -3.1415  -12.8694 C   0  0  0  0  0  0  0  0  0  0  0  0
  -15.3840   -4.0373  -13.8650 C   0  0  0  0  0  0  0  0  0  0  0  0
  -18.2839    1.8208  -14.2774 N   0  0  0  0  0  0  0  0  0  0  0  0
  -18.0363    1.3916  -13.3851 H   0  0  0  0  0  0  0  0  0  0  0  0
  -19.2780    1.0276  -14.9985 C   0  0  0  0  0  0  0  0  0  0  0  0
  -20.6881    1.4168  -14.6314 C   0  0  0  0  0  0  0  0  0  0  0  0
  -21.6186    0.4560  -14.2222 C   0  0  0  0  0  0  0  0  0  0  0  0
  -22.8526    0.8800  -13.7534 C   0  0  0  0  0  0  0  0  0  0  0  0
  -23.2188    2.1765  -13.6673 N   0  0  0  0  0  0  0  0  0  0  0  0
  -22.3095    3.0897  -14.0653 C   0  0  0  0  0  0  0  0  0  0  0  0
  -21.0511    2.7653  -14.5485 C   0  0  0  0  0  0  0  0  0  0  0  0
 12 13  1  0  0  0
 13 14  1  0  0  0
 13 18  2  0  0  0
 14 15  2  0  0  0
 15 16  1  0  0  0
 16 17  2  0  0  0
 17  7  1  0  0  0
 17 18  1  0  0  0
  7  8  1  0  0  0
  7 11  1  0  0  0
  8  9  2  0  0  0
  9  1  1  0  0  0
  9 10  1  0  0  0
  1  2  1  0  0  0
  1  6  2  0  0  0
  2  3  2  0  0  0
  3  4  1  0  0  0
  4  5  2  0  0  0
  5  6  1  0  0  0
  6 19  1  0  0  0
 19 21  1  0  0  0
 19 20  1  0  0  0
 21 22  1  0  0  0
 22 23  1  0  0  0
 22 27  2  0  0  0
 23 24  2  0  0  0
 24 25  1  0  0  0
 25 26  2  0  0  0
 26 27  1  0  0  0
 10 11  2  0  0  0
M  END
> <minimizedAffinity>
-8.93323

$$$$
