CHEMBL1241490


 24 27  0  0  0  0  0  0  0  0999 V2000
  -28.6602   -0.8740   -6.7427 N   0  0  0  0  0  0  0  0  0  0  0  0
  -28.0863   -0.5103   -7.9105 N   0  0  0  0  0  0  0  0  0  0  0  0
  -27.8291   -1.6736   -8.5412 C   0  0  0  0  0  0  0  0  0  0  0  0
  -28.2018   -2.7935   -7.7263 C   0  0  0  0  0  0  0  0  0  0  0  0
  -28.1548   -4.1970   -7.7594 C   0  0  0  0  0  0  0  0  0  0  0  0
  -27.5710   -4.9611   -8.7595 N   0  0  0  0  0  0  0  0  0  0  0  0
  -28.6954   -4.8905   -6.7363 N   0  0  0  0  0  0  0  0  0  0  0  0
  -29.2380   -4.2115   -5.7099 C   0  0  0  0  0  0  0  0  0  0  0  0
  -29.3005   -2.8827   -5.5444 N   0  0  0  0  0  0  0  0  0  0  0  0
  -28.7649   -2.2297   -6.5909 C   0  0  0  0  0  0  0  0  0  0  0  0
  -26.7429   -4.5520   -9.1739 H   0  0  0  0  0  0  0  0  0  0  0  0
  -27.4700   -5.9218   -8.4498 H   0  0  0  0  0  0  0  0  0  0  0  0
  -27.2478   -1.6519   -9.8916 C   0  0  0  0  0  0  0  0  0  0  0  0
  -28.0687   -1.6065  -11.0303 C   0  0  0  0  0  0  0  0  0  0  0  0
  -27.5442   -1.6076  -12.3288 C   0  0  0  0  0  0  0  0  0  0  0  0
  -26.1598   -1.5667  -12.4336 C   0  0  0  0  0  0  0  0  0  0  0  0
  -25.4593   -1.4982  -13.5981 O   0  0  0  0  0  0  0  0  0  0  0  0
  -24.1457   -1.4150  -13.2626 C   0  0  0  0  0  0  0  0  0  0  0  0
  -23.9906   -1.4578  -11.8956 C   0  0  0  0  0  0  0  0  0  0  0  0
  -25.2960   -1.5595  -11.3458 C   0  0  0  0  0  0  0  0  0  0  0  0
  -25.8454   -1.6264  -10.0508 C   0  0  0  0  0  0  0  0  0  0  0  0
  -27.9202    0.5033   -4.8363 C   0  0  0  0  0  0  0  0  0  0  0  0
  -29.0680    0.1367   -5.7762 C   0  0  0  0  0  0  0  0  0  0  0  0
  -29.6413    1.3813   -6.4569 C   0  0  0  0  0  0  0  0  0  0  0  0
 22 23  1  0  0  0
 23 24  1  0  0  0
 23  1  1  0  0  0
  1  2  1  0  0  0
  1 10  1  0  0  0
  2  3  2  0  0  0
  3 13  1  0  0  0
  3  4  1  0  0  0
 13 14  1  0  0  0
 13 21  2  0  0  0
 14 15  2  0  0  0
 15 16  1  0  0  0
 16 17  1  0  0  0
 16 20  2  0  0  0
 17 18  1  0  0  0
 18 19  2  0  0  0
 19 20  1  0  0  0
 20 21  1  0  0  0
  4  5  1  0  0  0
  4 10  2  0  0  0
  5  6  1  0  0  0
  5  7  2  0  0  0
  6 11  1  0  0  0
  6 12  1  0  0  0
  7  8  1  0  0  0
  8  9  2  0  0  0
  9 10  1  0  0  0
M  END
> <minimizedAffinity>
-8.22894

$$$$
