CHEMBL3671574


 41 44  0  0  0  0  0  0  0  0999 V2000
  -27.2890   -8.5749   -4.8576 C   0  0  0  0  0  0  0  0  0  0  0  0
  -27.3914   -7.1856   -4.6972 C   0  0  0  0  0  0  0  0  0  0  0  0
  -28.6270   -6.5702   -4.4204 C   0  0  0  0  0  0  0  0  0  0  0  0
  -28.8493   -5.1881   -4.3803 C   0  0  0  0  0  0  0  0  0  0  0  0
  -30.0600   -4.6744   -4.1422 N   0  0  0  0  0  0  0  0  0  0  0  0
  -31.0664   -5.5356   -3.9469 C   0  0  0  0  0  0  0  0  0  0  0  0
  -30.9607   -6.8650   -3.9773 N   0  0  0  0  0  0  0  0  0  0  0  0
  -29.7474   -7.3697   -4.2122 C   0  0  0  0  0  0  0  0  0  0  0  0
  -29.6325   -8.7485   -4.3343 C   0  0  0  0  0  0  0  0  0  0  0  0
  -28.4285   -9.3799   -4.6813 C   0  0  0  0  0  0  0  0  0  0  0  0
  -25.1137   -9.4675   -4.2806 C   0  0  0  0  0  0  0  0  0  0  0  0
  -25.2811   -9.4183   -3.0555 O   0  0  0  0  0  0  0  0  0  0  0  0
  -26.0293   -9.0806   -5.2355 N   0  0  0  0  0  0  0  0  0  0  0  0
  -25.7619   -8.9935   -6.2013 H   0  0  0  0  0  0  0  0  0  0  0  0
  -23.5841   -9.8544   -6.1638 C   0  0  0  0  0  0  0  0  0  0  0  0
  -23.8173   -9.9274   -4.8422 C   0  0  0  0  0  0  0  0  0  0  0  0
  -27.7868   -4.2940   -4.6942 N   0  0  0  0  0  0  0  0  0  0  0  0
  -27.0099   -4.3934   -4.0463 H   0  0  0  0  0  0  0  0  0  0  0  0
  -27.9838   -2.9643   -5.1235 C   0  0  0  0  0  0  0  0  0  0  0  0
  -27.8922   -2.6343   -6.4833 C   0  0  0  0  0  0  0  0  0  0  0  0
  -28.1817   -1.3422   -6.9311 C   0  0  0  0  0  0  0  0  0  0  0  0
  -28.5527   -0.3675   -6.0104 C   0  0  0  0  0  0  0  0  0  0  0  0
  -29.0230    1.3576   -6.6252 Br  0  0  0  0  0  0  0  0  0  0  0  0
  -28.5970   -0.6556   -4.6467 C   0  0  0  0  0  0  0  0  0  0  0  0
  -28.3051   -1.9493   -4.2173 C   0  0  0  0  0  0  0  0  0  0  0  0
  -28.3694   -2.2276   -2.9052 F   0  0  0  0  0  0  0  0  0  0  0  0
  -28.3579  -10.7368   -4.9646 O   0  0  0  0  0  0  0  0  0  0  0  0
  -29.6366  -11.4163   -4.9209 C   0  0  0  0  0  0  0  0  0  0  0  0
  -29.9965  -12.0819   -6.2526 C   0  0  0  0  0  0  0  0  0  0  0  0
  -29.3528  -11.4130   -7.3812 N   0  0  0  0  0  0  0  0  0  0  0  0
  -30.0451  -11.0816   -8.5238 C   0  0  0  0  0  0  0  0  0  0  0  0
  -31.1652  -11.5105   -8.7702 O   0  0  0  0  0  0  0  0  0  0  0  0
  -28.4374  -11.0033   -7.2386 H   0  0  0  0  0  0  0  0  0  0  0  0
  -29.2576  -10.2392   -9.5780 C   0  0  0  0  0  0  0  0  0  0  0  0
  -28.1494  -11.0856  -10.2151 C   0  0  0  0  0  0  0  0  0  0  0  0
  -27.1749  -10.0668  -10.7905 C   0  0  0  0  0  0  0  0  0  0  0  0
  -27.3055   -8.8541   -9.8821 C   0  0  0  0  0  0  0  0  0  0  0  0
  -28.5049   -9.0704   -9.0846 N   0  0  0  0  0  0  0  0  0  0  0  0
  -29.1422   -8.0833   -8.3579 C   0  0  0  0  0  0  0  0  0  0  0  0
  -28.4244   -6.7699   -8.1492 C   0  0  0  0  0  0  0  0  0  0  0  0
  -30.2405   -8.2717   -7.8321 O   0  0  0  0  0  0  0  0  0  0  0  0
 15 16  2  0  0  0
 16 11  1  0  0  0
 11 12  2  0  0  0
 11 13  1  0  0  0
 13  1  1  0  0  0
 13 14  1  0  0  0
  1  2  1  0  0  0
  1 10  2  0  0  0
  2  3  2  0  0  0
  3  4  1  0  0  0
  3  8  1  0  0  0
  4 17  1  0  0  0
  4  5  2  0  0  0
 17 19  1  0  0  0
 17 18  1  0  0  0
 19 20  1  0  0  0
 19 25  2  0  0  0
 20 21  2  0  0  0
 21 22  1  0  0  0
 22 23  1  0  0  0
 22 24  2  0  0  0
 24 25  1  0  0  0
 25 26  1  0  0  0
  5  6  1  0  0  0
  6  7  2  0  0  0
  7  8  1  0  0  0
  8  9  2  0  0  0
  9 10  1  0  0  0
 10 27  1  0  0  0
 27 28  1  0  0  0
 28 29  1  0  0  0
 29 30  1  0  0  0
 30 31  1  0  0  0
 30 33  1  0  0  0
 31 32  2  0  0  0
 31 34  1  0  0  0
 34 35  1  0  0  0
 34 38  1  0  0  0
 35 36  1  0  0  0
 36 37  1  0  0  0
 37 38  1  0  0  0
 38 39  1  0  0  0
 39 40  1  0  0  0
 39 41  2  0  0  0
M  END
> <minimizedAffinity>
-8.10386

$$$$
