CHEMBL4224704


 35 37  0  0  0  0  0  0  0  0999 V2000
  -29.7757   -9.6403   -7.3667 C   0  0  0  0  0  0  0  0  0  0  0  0
  -30.7636   -8.7786   -7.8297 C   0  0  0  0  0  0  0  0  0  0  0  0
  -31.0391   -7.5877   -7.1488 C   0  0  0  0  0  0  0  0  0  0  0  0
  -30.3374   -7.2167   -5.9954 C   0  0  0  0  0  0  0  0  0  0  0  0
  -29.3777   -8.1094   -5.5048 C   0  0  0  0  0  0  0  0  0  0  0  0
  -29.1004   -9.3097   -6.1862 C   0  0  0  0  0  0  0  0  0  0  0  0
  -30.5506   -5.9839   -5.3100 N   0  0  0  0  0  0  0  0  0  0  0  0
  -29.7480   -4.8607   -5.4312 C   0  0  0  0  0  0  0  0  0  0  0  0
  -28.7445   -4.8154   -6.1352 O   0  0  0  0  0  0  0  0  0  0  0  0
  -30.1768   -3.7756   -4.6709 N   0  0  0  0  0  0  0  0  0  0  0  0
  -31.3232   -5.9495   -4.6614 H   0  0  0  0  0  0  0  0  0  0  0  0
  -30.7289   -3.9762   -3.8472 H   0  0  0  0  0  0  0  0  0  0  0  0
  -29.5743   -2.4861   -4.7622 C   0  0  0  0  0  0  0  0  0  0  0  0
  -28.2598   -2.2543   -4.3504 C   0  0  0  0  0  0  0  0  0  0  0  0
  -27.7111   -0.9730   -4.3499 C   0  0  0  0  0  0  0  0  0  0  0  0
  -28.4484    0.1107   -4.8180 C   0  0  0  0  0  0  0  0  0  0  0  0
  -27.6709    1.6476   -4.7321 Cl  0  0  0  0  0  0  0  0  0  0  0  0
  -29.7400   -0.0895   -5.3192 C   0  0  0  0  0  0  0  0  0  0  0  0
  -30.2955   -1.4024   -5.2775 C   0  0  0  0  0  0  0  0  0  0  0  0
  -30.5782    1.0129   -5.9149 C   0  0  0  0  0  0  0  0  0  0  0  0
  -31.7569    0.6482   -6.4826 F   0  0  0  0  0  0  0  0  0  0  0  0
  -30.9076    1.9483   -4.9765 F   0  0  0  0  0  0  0  0  0  0  0  0
  -29.9048    1.6970   -6.8840 F   0  0  0  0  0  0  0  0  0  0  0  0
  -29.4310  -11.1495   -8.2482 S   0  0  0  0  0  0  0  0  0  0  0  0
  -27.5154   -9.6751  -12.1012 C   0  0  0  0  0  0  0  0  0  0  0  0
  -28.7979  -10.2241  -12.1466 C   0  0  0  0  0  0  0  0  0  0  0  0
  -29.3949  -10.6634  -10.9596 C   0  0  0  0  0  0  0  0  0  0  0  0
  -28.6939  -10.5440   -9.7598 C   0  0  0  0  0  0  0  0  0  0  0  0
  -27.4446  -10.0327   -9.7045 N   0  0  0  0  0  0  0  0  0  0  0  0
  -26.8840   -9.6157  -10.8676 C   0  0  0  0  0  0  0  0  0  0  0  0
  -26.7306   -9.0069  -15.7393 C   0  0  0  0  0  0  0  0  0  0  0  0
  -27.3348   -9.4995  -14.5232 N   0  0  0  0  0  0  0  0  0  0  0  0
  -26.7835   -9.1891  -13.2993 C   0  0  0  0  0  0  0  0  0  0  0  0
  -25.7629   -8.5279  -13.1627 O   0  0  0  0  0  0  0  0  0  0  0  0
  -28.2641   -9.8941  -14.5793 H   0  0  0  0  0  0  0  0  0  0  0  0
 31 32  1  0  0  0
 32 33  1  0  0  0
 32 35  1  0  0  0
 33 34  2  0  0  0
 33 25  1  0  0  0
 25 26  1  0  0  0
 25 30  2  0  0  0
 26 27  2  0  0  0
 27 28  1  0  0  0
 28 24  1  0  0  0
 28 29  2  0  0  0
 24  1  1  0  0  0
  1  2  1  0  0  0
  1  6  2  0  0  0
  2  3  2  0  0  0
  3  4  1  0  0  0
  4  7  1  0  0  0
  4  5  2  0  0  0
  7  8  1  0  0  0
  7 11  1  0  0  0
  8  9  2  0  0  0
  8 10  1  0  0  0
 10 13  1  0  0  0
 10 12  1  0  0  0
 13 14  1  0  0  0
 13 19  2  0  0  0
 14 15  2  0  0  0
 15 16  1  0  0  0
 16 17  1  0  0  0
 16 18  2  0  0  0
 18 20  1  0  0  0
 18 19  1  0  0  0
 20 21  1  0  0  0
 20 22  1  0  0  0
 20 23  1  0  0  0
  5  6  1  0  0  0
 29 30  1  0  0  0
M  END
> <minimizedAffinity>
-8.24067

$$$$
