CHEMBL4100492


 31 34  0  0  0  0  0  0  0  0999 V2000
  -13.4450   -3.6496  -10.8114 C   0  0  0  0  0  0  0  0  0  0  0  0
  -12.8493   -3.0567  -11.9195 C   0  0  0  0  0  0  0  0  0  0  0  0
  -13.5951   -2.4184  -12.9087 C   0  0  0  0  0  0  0  0  0  0  0  0
  -14.9640   -2.2113  -12.7639 C   0  0  0  0  0  0  0  0  0  0  0  0
  -15.5721   -2.6944  -11.6014 C   0  0  0  0  0  0  0  0  0  0  0  0
  -14.8243   -3.4203  -10.6502 C   0  0  0  0  0  0  0  0  0  0  0  0
  -12.4673   -6.5510  -12.7072 C   0  0  0  0  0  0  0  0  0  0  0  0
  -11.9023   -6.5950  -11.3293 C   0  0  0  0  0  0  0  0  0  0  0  0
  -11.1401   -7.6614  -11.0299 N   0  0  0  0  0  0  0  0  0  0  0  0
  -10.7967   -7.4624   -9.7527 N   0  0  0  0  0  0  0  0  0  0  0  0
  -11.2860   -6.3131   -9.2167 C   0  0  0  0  0  0  0  0  0  0  0  0
  -11.0661   -5.9100   -7.9504 N   0  0  0  0  0  0  0  0  0  0  0  0
  -11.6539   -4.7364   -7.6671 C   0  0  0  0  0  0  0  0  0  0  0  0
  -12.4184   -3.9864   -8.5477 C   0  0  0  0  0  0  0  0  0  0  0  0
  -12.6388   -4.4403   -9.8653 C   0  0  0  0  0  0  0  0  0  0  0  0
  -12.0257   -5.6828  -10.2150 C   0  0  0  0  0  0  0  0  0  0  0  0
  -10.2220   -8.1499   -9.2828 H   0  0  0  0  0  0  0  0  0  0  0  0
  -15.7377   -1.5147  -13.7289 N   0  0  0  0  0  0  0  0  0  0  0  0
  -16.0718   -0.1824  -13.6659 C   0  0  0  0  0  0  0  0  0  0  0  0
  -15.7202    0.6109  -12.7910 O   0  0  0  0  0  0  0  0  0  0  0  0
  -16.8704    0.2492  -14.7075 N   0  0  0  0  0  0  0  0  0  0  0  0
  -15.9920   -2.0134  -14.5659 H   0  0  0  0  0  0  0  0  0  0  0  0
  -17.5029   -0.4381  -15.0874 H   0  0  0  0  0  0  0  0  0  0  0  0
  -17.3298    1.6356  -14.6236 C   0  0  0  0  0  0  0  0  0  0  0  0
  -18.3873    2.0124  -15.6525 C   0  0  0  0  0  0  0  0  0  0  0  0
  -19.7830    1.9342  -15.0741 C   0  0  0  0  0  0  0  0  0  0  0  0
  -20.4842    3.1083  -14.7620 C   0  0  0  0  0  0  0  0  0  0  0  0
  -21.7790    3.0513  -14.2425 C   0  0  0  0  0  0  0  0  0  0  0  0
  -22.3875    1.8159  -14.0206 C   0  0  0  0  0  0  0  0  0  0  0  0
  -21.6923    0.6411  -14.3024 C   0  0  0  0  0  0  0  0  0  0  0  0
  -20.3946    0.6988  -14.8212 C   0  0  0  0  0  0  0  0  0  0  0  0
  7  8  1  0  0  0
  8  9  2  0  0  0
  8 16  1  0  0  0
  9 10  1  0  0  0
 10 11  1  0  0  0
 10 17  1  0  0  0
 11 12  1  0  0  0
 11 16  2  0  0  0
 12 13  2  0  0  0
 13 14  1  0  0  0
 14 15  2  0  0  0
 15  1  1  0  0  0
 15 16  1  0  0  0
  1  2  1  0  0  0
  1  6  2  0  0  0
  2  3  2  0  0  0
  3  4  1  0  0  0
  4 18  1  0  0  0
  4  5  2  0  0  0
 18 19  1  0  0  0
 18 22  1  0  0  0
 19 20  2  0  0  0
 19 21  1  0  0  0
 21 24  1  0  0  0
 21 23  1  0  0  0
 24 25  1  0  0  0
 25 26  1  0  0  0
 26 27  1  0  0  0
 26 31  2  0  0  0
 27 28  2  0  0  0
 28 29  1  0  0  0
 29 30  2  0  0  0
 30 31  1  0  0  0
  5  6  1  0  0  0
M  END
> <minimizedAffinity>
-9.27875

$$$$
