CHEMBL3905552


 45 49  0  0  0  0  0  0  0  0999 V2000
  -28.8861   -5.4831   -7.2814 C   0  0  0  0  0  0  0  0  0  0  0  0
  -28.3918   -4.4843   -8.1184 C   0  0  0  0  0  0  0  0  0  0  0  0
  -28.1568   -3.2014   -7.6249 C   0  0  0  0  0  0  0  0  0  0  0  0
  -27.9866   -2.0907   -8.4686 C   0  0  0  0  0  0  0  0  0  0  0  0
  -27.8457   -0.8535   -7.9760 N   0  0  0  0  0  0  0  0  0  0  0  0
  -27.8699   -0.7380   -6.6447 C   0  0  0  0  0  0  0  0  0  0  0  0
  -28.0405   -1.7310   -5.7560 N   0  0  0  0  0  0  0  0  0  0  0  0
  -28.2175   -2.9682   -6.2489 C   0  0  0  0  0  0  0  0  0  0  0  0
  -28.4974   -4.0547   -5.4010 C   0  0  0  0  0  0  0  0  0  0  0  0
  -28.8278   -5.3325   -5.8939 C   0  0  0  0  0  0  0  0  0  0  0  0
  -28.6405   -7.5944   -8.2593 C   0  0  0  0  0  0  0  0  0  0  0  0
  -29.5359   -6.5453   -7.8590 O   0  0  0  0  0  0  0  0  0  0  0  0
  -28.0275   -2.2789   -9.8813 N   0  0  0  0  0  0  0  0  0  0  0  0
  -28.3980   -3.2029  -10.0825 H   0  0  0  0  0  0  0  0  0  0  0  0
  -27.0436   -1.8813  -10.8100 C   0  0  0  0  0  0  0  0  0  0  0  0
  -27.3891   -1.6836  -12.1447 C   0  0  0  0  0  0  0  0  0  0  0  0
  -26.4109   -1.3681  -13.0952 C   0  0  0  0  0  0  0  0  0  0  0  0
  -25.0630   -1.2259  -12.7443 C   0  0  0  0  0  0  0  0  0  0  0  0
  -24.7402   -1.2835  -11.3874 C   0  0  0  0  0  0  0  0  0  0  0  0
  -25.7242   -1.6013  -10.4336 C   0  0  0  0  0  0  0  0  0  0  0  0
  -24.0183   -1.0514  -13.6961 N   0  0  0  0  0  0  0  0  0  0  0  0
  -23.1370    0.0168  -13.7066 C   0  0  0  0  0  0  0  0  0  0  0  0
  -23.1711    0.9288  -12.8906 O   0  0  0  0  0  0  0  0  0  0  0  0
  -22.2083   -0.0278  -14.7430 N   0  0  0  0  0  0  0  0  0  0  0  0
  -23.9990   -1.6887  -14.4789 H   0  0  0  0  0  0  0  0  0  0  0  0
  -22.4933   -0.4789  -15.6006 H   0  0  0  0  0  0  0  0  0  0  0  0
  -21.1231    0.8945  -14.8317 C   0  0  0  0  0  0  0  0  0  0  0  0
  -21.3444    2.2708  -14.8783 C   0  0  0  0  0  0  0  0  0  0  0  0
  -20.3001    3.1670  -15.1016 C   0  0  0  0  0  0  0  0  0  0  0  0
  -18.9852    2.7160  -15.2324 C   0  0  0  0  0  0  0  0  0  0  0  0
  -17.9199    3.7278  -15.5529 C   0  0  0  0  0  0  0  0  0  0  0  0
  -18.7215    1.3408  -15.0728 C   0  0  0  0  0  0  0  0  0  0  0  0
  -17.3220    0.7876  -15.1263 C   0  0  0  0  0  0  0  0  0  0  0  0
  -19.8056    0.4375  -14.8832 C   0  0  0  0  0  0  0  0  0  0  0  0
  -29.1270   -6.3095   -4.9578 O   0  0  0  0  0  0  0  0  0  0  0  0
  -27.9847   -7.0895   -4.5489 C   0  0  0  0  0  0  0  0  0  0  0  0
  -28.1625   -8.5936   -4.7806 C   0  0  0  0  0  0  0  0  0  0  0  0
  -27.5594   -9.4241   -3.6166 C   0  0  0  0  0  0  0  0  0  0  0  0
  -26.3924  -10.2536   -3.9616 N   0  0  0  0  0  0  0  0  0  0  0  0
  -26.2320  -10.4555   -5.4113 C   0  0  0  0  0  0  0  0  0  0  0  0
  -25.0565  -11.4177   -5.6905 C   0  0  0  0  0  0  0  0  0  0  0  0
  -23.7472  -10.9373   -5.2138 N   0  0  0  0  0  0  0  0  0  0  0  0
  -23.2170   -9.8823   -6.0716 C   0  0  0  0  0  0  0  0  0  0  0  0
  -23.8658  -10.5137   -3.8031 C   0  0  0  0  0  0  0  0  0  0  0  0
  -25.1296   -9.6810   -3.4322 C   0  0  0  0  0  0  0  0  0  0  0  0
 11 12  1  0  0  0
 12  1  1  0  0  0
  1  2  1  0  0  0
  1 10  2  0  0  0
  2  3  2  0  0  0
  3  4  1  0  0  0
  3  8  1  0  0  0
  4 13  1  0  0  0
  4  5  2  0  0  0
 13 15  1  0  0  0
 13 14  1  0  0  0
 15 16  1  0  0  0
 15 20  2  0  0  0
 16 17  2  0  0  0
 17 18  1  0  0  0
 18 21  1  0  0  0
 18 19  2  0  0  0
 21 22  1  0  0  0
 21 25  1  0  0  0
 22 23  2  0  0  0
 22 24  1  0  0  0
 24 27  1  0  0  0
 24 26  1  0  0  0
 27 28  1  0  0  0
 27 34  2  0  0  0
 28 29  2  0  0  0
 29 30  1  0  0  0
 30 31  1  0  0  0
 30 32  2  0  0  0
 32 33  1  0  0  0
 32 34  1  0  0  0
 19 20  1  0  0  0
  5  6  1  0  0  0
  6  7  2  0  0  0
  7  8  1  0  0  0
  8  9  2  0  0  0
  9 10  1  0  0  0
 10 35  1  0  0  0
 35 36  1  0  0  0
 36 37  1  0  0  0
 37 38  1  0  0  0
 38 39  1  0  0  0
 39 40  1  0  0  0
 39 45  1  0  0  0
 40 41  1  0  0  0
 41 42  1  0  0  0
 42 43  1  0  0  0
 42 44  1  0  0  0
 44 45  1  0  0  0
M  END
> <minimizedAffinity>
-10.90993

$$$$
