CHEMBL430812


 31 35  0  0  0  0  0  0  0  0999 V2000
  -23.5244   -1.8635  -11.5243 O   0  0  0  0  0  0  0  0  0  0  0  0
  -24.7427   -1.7244  -11.4503 C   0  0  0  0  0  0  0  0  0  0  0  0
  -25.4025   -1.9464  -10.2681 N   0  0  0  0  0  0  0  0  0  0  0  0
  -26.6890   -1.8558  -10.2303 C   0  0  0  0  0  0  0  0  0  0  0  0
  -27.5397   -1.4765  -11.3719 C   0  0  0  0  0  0  0  0  0  0  0  0
  -26.8757   -1.2308  -12.4941 C   0  0  0  0  0  0  0  0  0  0  0  0
  -25.5050   -1.3459  -12.5599 N   0  0  0  0  0  0  0  0  0  0  0  0
  -27.3751   -2.1521   -8.9504 C   0  0  0  0  0  0  0  0  0  0  0  0
  -27.9494   -3.4196   -8.8000 C   0  0  0  0  0  0  0  0  0  0  0  0
  -28.7123   -3.7346   -7.6760 C   0  0  0  0  0  0  0  0  0  0  0  0
  -28.9224   -2.7071   -6.7470 C   0  0  0  0  0  0  0  0  0  0  0  0
  -28.4010   -1.4251   -6.9125 C   0  0  0  0  0  0  0  0  0  0  0  0
  -27.5637   -1.1450   -7.9980 C   0  0  0  0  0  0  0  0  0  0  0  0
  -28.8726   -0.5648   -5.9572 N   0  0  0  0  0  0  0  0  0  0  0  0
  -29.7049   -1.2860   -5.2417 C   0  0  0  0  0  0  0  0  0  0  0  0
  -29.6926   -2.6134   -5.6030 N   0  0  0  0  0  0  0  0  0  0  0  0
  -30.3155   -3.6592   -4.8903 C   0  0  0  0  0  0  0  0  0  0  0  0
  -30.2814   -4.9594   -5.4049 C   0  0  0  0  0  0  0  0  0  0  0  0
  -31.0073   -5.9660   -4.7731 C   0  0  0  0  0  0  0  0  0  0  0  0
  -31.7842   -5.6699   -3.6526 C   0  0  0  0  0  0  0  0  0  0  0  0
  -31.8010   -4.3758   -3.1301 C   0  0  0  0  0  0  0  0  0  0  0  0
  -31.0507   -3.3686   -3.7350 C   0  0  0  0  0  0  0  0  0  0  0  0
  -24.8297   -1.1376  -13.8349 C   0  0  0  0  0  0  0  0  0  0  0  0
  -23.8682    0.0562  -13.8221 C   0  0  0  0  0  0  0  0  0  0  0  0
  -22.3918   -0.3043  -14.0483 C   0  0  0  0  0  0  0  0  0  0  0  0
  -21.4646    0.8436  -14.0565 N   0  0  0  0  0  0  0  0  0  0  0  0
  -20.4312    0.7114  -15.0951 C   0  0  0  0  0  0  0  0  0  0  0  0
  -19.4595    1.8919  -15.0673 C   0  0  0  0  0  0  0  0  0  0  0  0
  -20.1940    3.2168  -15.2164 C   0  0  0  0  0  0  0  0  0  0  0  0
  -21.3066    3.3195  -14.1811 C   0  0  0  0  0  0  0  0  0  0  0  0
  -22.2231    2.0960  -14.2303 C   0  0  0  0  0  0  0  0  0  0  0  0
  1  2  2  0  0  0
  2  3  1  0  0  0
  2  7  1  0  0  0
  3  4  2  0  0  0
  4  8  1  0  0  0
  4  5  1  0  0  0
  8  9  1  0  0  0
  8 13  2  0  0  0
  9 10  2  0  0  0
 10 11  1  0  0  0
 11 12  2  0  0  0
 11 16  1  0  0  0
 12 13  1  0  0  0
 12 14  1  0  0  0
 14 15  2  0  0  0
 15 16  1  0  0  0
 16 17  1  0  0  0
 17 18  1  0  0  0
 17 22  2  0  0  0
 18 19  2  0  0  0
 19 20  1  0  0  0
 20 21  2  0  0  0
 21 22  1  0  0  0
  5  6  2  0  0  0
  6  7  1  0  0  0
  7 23  1  0  0  0
 23 24  1  0  0  0
 24 25  1  0  0  0
 25 26  1  0  0  0
 26 27  1  0  0  0
 26 31  1  0  0  0
 27 28  1  0  0  0
 28 29  1  0  0  0
 29 30  1  0  0  0
 30 31  1  0  0  0
M  END
> <minimizedAffinity>
-10.64286

$$$$
