CHEMBL3745924


 36 40  0  0  0  0  0  0  0  0999 V2000
  -29.3989   -6.1252   -6.0157 C   0  0  0  0  0  0  0  0  0  0  0  0
  -28.9360   -6.0960   -7.3360 C   0  0  0  0  0  0  0  0  0  0  0  0
  -28.6237   -4.8920   -7.9759 C   0  0  0  0  0  0  0  0  0  0  0  0
  -28.8588   -3.6916   -7.2904 C   0  0  0  0  0  0  0  0  0  0  0  0
  -29.4269   -3.6943   -6.0042 C   0  0  0  0  0  0  0  0  0  0  0  0
  -29.5419   -2.3410   -5.5927 C   0  0  0  0  0  0  0  0  0  0  0  0
  -28.9391   -1.5668   -6.5521 C   0  0  0  0  0  0  0  0  0  0  0  0
  -28.4957   -2.3732   -7.5913 N   0  0  0  0  0  0  0  0  0  0  0  0
  -27.6407   -1.9059   -8.6208 C   0  0  0  0  0  0  0  0  0  0  0  0
  -26.8175   -1.0545   -8.3224 O   0  0  0  0  0  0  0  0  0  0  0  0
  -27.9623   -2.3950   -9.8750 N   0  0  0  0  0  0  0  0  0  0  0  0
  -29.7129   -4.9277   -5.3657 C   0  0  0  0  0  0  0  0  0  0  0  0
  -28.9017   -2.7502  -10.0152 H   0  0  0  0  0  0  0  0  0  0  0  0
  -27.1993   -2.0479  -11.0240 C   0  0  0  0  0  0  0  0  0  0  0  0
  -27.7966   -1.9756  -12.2883 C   0  0  0  0  0  0  0  0  0  0  0  0
  -27.0437   -1.7047  -13.4289 C   0  0  0  0  0  0  0  0  0  0  0  0
  -25.6729   -1.4978  -13.3191 C   0  0  0  0  0  0  0  0  0  0  0  0
  -25.0495   -1.5303  -12.0624 C   0  0  0  0  0  0  0  0  0  0  0  0
  -25.8292   -1.7809  -10.9090 C   0  0  0  0  0  0  0  0  0  0  0  0
  -23.5569   -1.3258  -11.9644 C   0  0  0  0  0  0  0  0  0  0  0  0
  -23.1957   -0.0345  -11.7128 F   0  0  0  0  0  0  0  0  0  0  0  0
  -22.9900   -2.0663  -10.9715 F   0  0  0  0  0  0  0  0  0  0  0  0
  -22.9035   -1.6730  -13.1091 F   0  0  0  0  0  0  0  0  0  0  0  0
  -29.5486   -7.3167   -5.3174 O   0  0  0  0  0  0  0  0  0  0  0  0
  -25.0556   -9.7517   -5.0073 N   0  0  0  0  0  0  0  0  0  0  0  0
  -25.7419   -9.0616   -3.9007 C   0  0  0  0  0  0  0  0  0  0  0  0
  -26.8930   -8.1886   -4.4471 C   0  0  0  0  0  0  0  0  0  0  0  0
  -27.7583   -8.9138   -5.4373 C   0  0  0  0  0  0  0  0  0  0  0  0
  -27.3167  -10.0985   -6.0196 C   0  0  0  0  0  0  0  0  0  0  0  0
  -28.0319  -10.7862   -6.9380 N   0  0  0  0  0  0  0  0  0  0  0  0
  -29.1730  -10.2231   -7.3359 C   0  0  0  0  0  0  0  0  0  0  0  0
  -29.6751   -9.0767   -6.8788 N   0  0  0  0  0  0  0  0  0  0  0  0
  -28.9811   -8.4568   -5.8989 C   0  0  0  0  0  0  0  0  0  0  0  0
  -25.9956  -10.7186   -5.6074 C   0  0  0  0  0  0  0  0  0  0  0  0
  -23.8098  -10.7360   -3.0714 C   0  0  0  0  0  0  0  0  0  0  0  0
  -23.8104  -10.3922   -4.5610 C   0  0  0  0  0  0  0  0  0  0  0  0
 35 36  1  0  0  0
 36 25  1  0  0  0
 25 26  1  0  0  0
 25 34  1  0  0  0
 26 27  1  0  0  0
 27 28  1  0  0  0
 28 29  1  0  0  0
 28 33  2  0  0  0
 29 30  2  0  0  0
 29 34  1  0  0  0
 30 31  1  0  0  0
 31 32  2  0  0  0
 32 33  1  0  0  0
 33 24  1  0  0  0
 24  1  1  0  0  0
  1  2  1  0  0  0
  1 12  2  0  0  0
  2  3  2  0  0  0
  3  4  1  0  0  0
  4  5  2  0  0  0
  4  8  1  0  0  0
  5  6  1  0  0  0
  5 12  1  0  0  0
  6  7  2  0  0  0
  7  8  1  0  0  0
  8  9  1  0  0  0
  9 10  2  0  0  0
  9 11  1  0  0  0
 11 14  1  0  0  0
 11 13  1  0  0  0
 14 15  1  0  0  0
 14 19  2  0  0  0
 15 16  2  0  0  0
 16 17  1  0  0  0
 17 18  2  0  0  0
 18 20  1  0  0  0
 18 19  1  0  0  0
 20 21  1  0  0  0
 20 22  1  0  0  0
 20 23  1  0  0  0
M  END
> <minimizedAffinity>
-10.83073

$$$$
