CHEMBL4528373


 43 47  0  0  0  0  0  0  0  0999 V2000
  -29.0728   -4.5522   -6.1461 C   0  0  0  0  0  0  0  0  0  0  0  0
  -28.4942   -3.3468   -5.7704 C   0  0  0  0  0  0  0  0  0  0  0  0
  -28.1563   -2.4038   -6.7343 C   0  0  0  0  0  0  0  0  0  0  0  0
  -28.3246   -2.6595   -8.0988 C   0  0  0  0  0  0  0  0  0  0  0  0
  -28.8432   -3.9022   -8.4785 C   0  0  0  0  0  0  0  0  0  0  0  0
  -29.2135   -4.8442   -7.5045 C   0  0  0  0  0  0  0  0  0  0  0  0
  -27.9925   -1.7140   -9.1011 N   0  0  0  0  0  0  0  0  0  0  0  0
  -27.1437   -1.9591  -10.1609 C   0  0  0  0  0  0  0  0  0  0  0  0
  -26.5869   -3.0286  -10.3893 O   0  0  0  0  0  0  0  0  0  0  0  0
  -26.9437   -0.8484  -10.9743 N   0  0  0  0  0  0  0  0  0  0  0  0
  -28.4818   -0.8310   -9.0907 H   0  0  0  0  0  0  0  0  0  0  0  0
  -26.7767    0.0042  -10.4530 H   0  0  0  0  0  0  0  0  0  0  0  0
  -26.0855   -1.0421  -12.0932 C   0  0  0  0  0  0  0  0  0  0  0  0
  -24.7974   -0.4882  -12.0973 C   0  0  0  0  0  0  0  0  0  0  0  0
  -24.0332   -0.4526  -13.2716 C   0  0  0  0  0  0  0  0  0  0  0  0
  -24.5750   -1.0045  -14.4441 C   0  0  0  0  0  0  0  0  0  0  0  0
  -25.8350   -1.6141  -14.4273 C   0  0  0  0  0  0  0  0  0  0  0  0
  -26.5744   -1.6476  -13.2478 C   0  0  0  0  0  0  0  0  0  0  0  0
  -27.8071   -2.1766  -13.2559 F   0  0  0  0  0  0  0  0  0  0  0  0
  -22.6736    0.2041  -13.2817 C   0  0  0  0  0  0  0  0  0  0  0  0
  -21.8549   -0.2387  -14.2764 F   0  0  0  0  0  0  0  0  0  0  0  0
  -22.7592    1.5538  -13.4495 F   0  0  0  0  0  0  0  0  0  0  0  0
  -21.9887    0.0165  -12.1202 F   0  0  0  0  0  0  0  0  0  0  0  0
  -29.4759   -5.5158   -5.2519 O   0  0  0  0  0  0  0  0  0  0  0  0
  -29.6254  -10.5581   -6.0675 C   0  0  0  0  0  0  0  0  0  0  0  0
  -28.4375  -10.1768   -5.4340 C   0  0  0  0  0  0  0  0  0  0  0  0
  -28.1376   -8.8698   -5.1196 C   0  0  0  0  0  0  0  0  0  0  0  0
  -26.9704   -8.6633   -4.5053 N   0  0  0  0  0  0  0  0  0  0  0  0
  -26.6934   -7.4093   -4.1424 C   0  0  0  0  0  0  0  0  0  0  0  0
  -27.4832   -6.3615   -4.3396 N   0  0  0  0  0  0  0  0  0  0  0  0
  -28.6309   -6.5944   -5.0167 C   0  0  0  0  0  0  0  0  0  0  0  0
  -29.0494   -7.8665   -5.4403 C   0  0  0  0  0  0  0  0  0  0  0  0
  -30.2517   -8.2160   -6.1204 C   0  0  0  0  0  0  0  0  0  0  0  0
  -30.5303   -9.5577   -6.4442 C   0  0  0  0  0  0  0  0  0  0  0  0
  -31.6765   -9.9281   -7.1087 O   0  0  0  0  0  0  0  0  0  0  0  0
  -32.3115   -8.8178   -7.7545 C   0  0  0  0  0  0  0  0  0  0  0  0
  -32.4073   -7.6372   -6.8102 C   0  0  0  0  0  0  0  0  0  0  0  0
  -31.1015   -7.1865   -6.4567 O   0  0  0  0  0  0  0  0  0  0  0  0
  -29.9336  -11.8746   -6.3448 O   0  0  0  0  0  0  0  0  0  0  0  0
  -29.1419  -12.4641   -7.3849 C   0  0  0  0  0  0  0  0  0  0  0  0
  -29.5786  -12.0297   -8.7748 C   0  0  0  0  0  0  0  0  0  0  0  0
  -28.4757  -10.5244  -10.2293 C   0  0  0  0  0  0  0  0  0  0  0  0
  -28.3900  -11.7517   -9.5236 O   0  0  0  0  0  0  0  0  0  0  0  0
 42 43  1  0  0  0
 43 41  1  0  0  0
 41 40  1  0  0  0
 40 39  1  0  0  0
 39 25  1  0  0  0
 25 26  1  0  0  0
 25 34  2  0  0  0
 26 27  2  0  0  0
 27 28  1  0  0  0
 27 32  1  0  0  0
 28 29  2  0  0  0
 29 30  1  0  0  0
 30 31  2  0  0  0
 31 24  1  0  0  0
 31 32  1  0  0  0
 24  1  1  0  0  0
  1  2  1  0  0  0
  1  6  2  0  0  0
  2  3  2  0  0  0
  3  4  1  0  0  0
  4  7  1  0  0  0
  4  5  2  0  0  0
  7  8  1  0  0  0
  7 11  1  0  0  0
  8  9  2  0  0  0
  8 10  1  0  0  0
 10 13  1  0  0  0
 10 12  1  0  0  0
 13 14  1  0  0  0
 13 18  2  0  0  0
 14 15  2  0  0  0
 15 20  1  0  0  0
 15 16  1  0  0  0
 20 21  1  0  0  0
 20 22  1  0  0  0
 20 23  1  0  0  0
 16 17  2  0  0  0
 17 18  1  0  0  0
 18 19  1  0  0  0
  5  6  1  0  0  0
 32 33  2  0  0  0
 33 34  1  0  0  0
 33 38  1  0  0  0
 34 35  1  0  0  0
 35 36  1  0  0  0
 36 37  1  0  0  0
 37 38  1  0  0  0
M  END
> <minimizedAffinity>
-9.02594

$$$$
