CHEMBL1082440


 23 25  0  0  0  0  0  0  0  0999 V2000
  -15.4740   -5.4541  -12.0923 S   0  0  0  0  0  0  0  0  0  0  0  0
  -15.8708   -6.3599  -13.1581 O   0  0  0  0  0  0  0  0  0  0  0  0
  -16.3613   -5.1101  -10.9961 O   0  0  0  0  0  0  0  0  0  0  0  0
  -14.7561   -3.4810   -9.6702 C   0  0  0  0  0  0  0  0  0  0  0  0
  -13.4292   -4.1843   -9.7225 C   0  0  0  0  0  0  0  0  0  0  0  0
  -12.4321   -3.6414   -8.8986 C   0  0  0  0  0  0  0  0  0  0  0  0
  -11.1959   -4.1390   -8.7471 N   0  0  0  0  0  0  0  0  0  0  0  0
  -10.9376   -5.2698   -9.4252 C   0  0  0  0  0  0  0  0  0  0  0  0
  -11.8471   -5.9420  -10.2376 C   0  0  0  0  0  0  0  0  0  0  0  0
  -11.4406   -7.1594  -10.8028 C   0  0  0  0  0  0  0  0  0  0  0  0
  -12.3307   -7.9326  -11.5282 C   0  0  0  0  0  0  0  0  0  0  0  0
  -13.6049   -7.4448  -11.7883 C   0  0  0  0  0  0  0  0  0  0  0  0
  -13.9927   -6.1634  -11.3505 C   0  0  0  0  0  0  0  0  0  0  0  0
  -13.1500   -5.3952  -10.4542 C   0  0  0  0  0  0  0  0  0  0  0  0
  -14.9862   -3.9974  -12.8411 N   0  0  0  0  0  0  0  0  0  0  0  0
  -16.0353   -2.9758  -13.0766 C   0  0  0  0  0  0  0  0  0  0  0  0
  -15.5259   -1.5708  -12.7900 C   0  0  0  0  0  0  0  0  0  0  0  0
  -14.9109   -0.9279  -14.0296 C   0  0  0  0  0  0  0  0  0  0  0  0
  -13.9578   -1.7433  -14.7727 N   0  0  0  0  0  0  0  0  0  0  0  0
  -13.1358   -2.6211  -13.9388 C   0  0  0  0  0  0  0  0  0  0  0  0
  -13.7557   -4.0228  -13.7084 C   0  0  0  0  0  0  0  0  0  0  0  0
  -13.9729   -4.7357  -15.0513 C   0  0  0  0  0  0  0  0  0  0  0  0
  -13.3688   -1.1367  -15.3428 H   0  0  0  0  0  0  0  0  0  0  0  0
  4  5  1  0  0  0
  5  6  1  0  0  0
  5 14  2  0  0  0
  6  7  2  0  0  0
  7  8  1  0  0  0
  8  9  2  0  0  0
  9 10  1  0  0  0
  9 14  1  0  0  0
 10 11  2  0  0  0
 11 12  1  0  0  0
 12 13  2  0  0  0
 13  1  1  0  0  0
 13 14  1  0  0  0
  1  2  2  0  0  0
  1  3  2  0  0  0
  1 15  1  0  0  0
 15 16  1  0  0  0
 15 21  1  0  0  0
 16 17  1  0  0  0
 17 18  1  0  0  0
 18 19  1  0  0  0
 19 20  1  0  0  0
 19 23  1  0  0  0
 20 21  1  0  0  0
 21 22  1  0  0  0
M  END
> <minimizedAffinity>
-6.78374

$$$$
