CHEMBL230109


 36 40  0  0  0  0  0  0  0  0999 V2000
  -14.6272    3.1716  -15.6064 C   0  0  0  0  0  0  0  0  0  0  0  0
  -16.0048    3.2095  -15.8780 C   0  0  0  0  0  0  0  0  0  0  0  0
  -16.8539    2.1393  -15.5342 C   0  0  0  0  0  0  0  0  0  0  0  0
  -16.2363    1.0530  -14.9218 C   0  0  0  0  0  0  0  0  0  0  0  0
  -16.8073   -0.1015  -14.4548 O   0  0  0  0  0  0  0  0  0  0  0  0
  -15.7386   -0.8378  -13.9983 C   0  0  0  0  0  0  0  0  0  0  0  0
  -14.5781   -0.2260  -14.1048 N   0  0  0  0  0  0  0  0  0  0  0  0
  -14.8772    0.9683  -14.6867 C   0  0  0  0  0  0  0  0  0  0  0  0
  -14.0417    2.0250  -15.0494 C   0  0  0  0  0  0  0  0  0  0  0  0
  -16.0155   -2.0699  -13.5376 N   0  0  0  0  0  0  0  0  0  0  0  0
  -16.5961   -2.6645  -14.1171 H   0  0  0  0  0  0  0  0  0  0  0  0
  -15.3786   -2.7150  -12.4572 C   0  0  0  0  0  0  0  0  0  0  0  0
  -15.8415   -2.5040  -11.1543 C   0  0  0  0  0  0  0  0  0  0  0  0
  -15.2026   -3.0982  -10.0588 C   0  0  0  0  0  0  0  0  0  0  0  0
  -14.0787   -3.9068  -10.2422 C   0  0  0  0  0  0  0  0  0  0  0  0
  -13.3277   -4.5627   -8.8316 Cl  0  0  0  0  0  0  0  0  0  0  0  0
  -13.5987   -4.1570  -11.5323 C   0  0  0  0  0  0  0  0  0  0  0  0
  -14.2519   -3.5396  -12.6165 C   0  0  0  0  0  0  0  0  0  0  0  0
  -12.4384   -5.0857  -11.8315 C   0  0  0  0  0  0  0  0  0  0  0  0
  -12.8570   -6.3529  -12.4354 N   0  0  0  0  0  0  0  0  0  0  0  0
  -11.8078   -7.0043  -13.2357 C   0  0  0  0  0  0  0  0  0  0  0  0
  -12.3454   -8.2894  -13.9054 C   0  0  0  0  0  0  0  0  0  0  0  0
  -12.9181   -9.2804  -12.9715 N   0  0  0  0  0  0  0  0  0  0  0  0
  -11.8752   -9.9609  -12.2103 C   0  0  0  0  0  0  0  0  0  0  0  0
  -13.8879   -8.6017  -12.0857 C   0  0  0  0  0  0  0  0  0  0  0  0
  -13.3814   -7.2920  -11.4318 C   0  0  0  0  0  0  0  0  0  0  0  0
  -13.8696    4.2746  -15.9613 O   0  0  0  0  0  0  0  0  0  0  0  0
  -14.2985    5.9544  -19.0767 C   0  0  0  0  0  0  0  0  0  0  0  0
  -13.5620    5.2271  -19.9252 N   0  0  0  0  0  0  0  0  0  0  0  0
  -12.9659    4.1244  -19.4326 C   0  0  0  0  0  0  0  0  0  0  0  0
  -13.0540    3.7398  -18.1167 C   0  0  0  0  0  0  0  0  0  0  0  0
  -13.7949    4.5752  -17.3215 C   0  0  0  0  0  0  0  0  0  0  0  0
  -14.4462    5.6617  -17.7822 N   0  0  0  0  0  0  0  0  0  0  0  0
  -14.2848    8.3346  -19.2805 C   0  0  0  0  0  0  0  0  0  0  0  0
  -14.9110    7.0753  -19.6153 N   0  0  0  0  0  0  0  0  0  0  0  0
  -15.0317    6.8899  -20.6043 H   0  0  0  0  0  0  0  0  0  0  0  0
 34 35  1  0  0  0
 35 28  1  0  0  0
 35 36  1  0  0  0
 28 29  1  0  0  0
 28 33  2  0  0  0
 29 30  2  0  0  0
 30 31  1  0  0  0
 31 32  2  0  0  0
 32 27  1  0  0  0
 32 33  1  0  0  0
 27  1  1  0  0  0
  1  2  1  0  0  0
  1  9  2  0  0  0
  2  3  2  0  0  0
  3  4  1  0  0  0
  4  5  1  0  0  0
  4  8  2  0  0  0
  5  6  1  0  0  0
  6 10  1  0  0  0
  6  7  2  0  0  0
 10 12  1  0  0  0
 10 11  1  0  0  0
 12 13  1  0  0  0
 12 18  2  0  0  0
 13 14  2  0  0  0
 14 15  1  0  0  0
 15 16  1  0  0  0
 15 17  2  0  0  0
 17 19  1  0  0  0
 17 18  1  0  0  0
 19 20  1  0  0  0
 20 21  1  0  0  0
 20 26  1  0  0  0
 21 22  1  0  0  0
 22 23  1  0  0  0
 23 24  1  0  0  0
 23 25  1  0  0  0
 25 26  1  0  0  0
  7  8  1  0  0  0
  8  9  1  0  0  0
M  END
> <minimizedAffinity>
-7.23604

$$$$
