CHEMBL4539395


 31 35  0  0  0  0  0  0  0  0999 V2000
  -18.3798    2.8408  -15.3628 N   0  0  0  0  0  0  0  0  0  0  0  0
  -18.0015    1.6363  -14.8388 C   0  0  0  0  0  0  0  0  0  0  0  0
  -16.6312    1.6388  -14.9600 C   0  0  0  0  0  0  0  0  0  0  0  0
  -16.2378    2.8085  -15.5647 N   0  0  0  0  0  0  0  0  0  0  0  0
  -17.3177    3.5371  -15.8086 N   0  0  0  0  0  0  0  0  0  0  0  0
  -15.7008    0.6475  -14.4506 C   0  0  0  0  0  0  0  0  0  0  0  0
  -14.3444    0.9913  -14.3852 C   0  0  0  0  0  0  0  0  0  0  0  0
  -13.4090    0.0808  -13.9114 C   0  0  0  0  0  0  0  0  0  0  0  0
  -13.8202   -1.1749  -13.4733 C   0  0  0  0  0  0  0  0  0  0  0  0
  -15.1701   -1.5377  -13.4803 C   0  0  0  0  0  0  0  0  0  0  0  0
  -16.1079   -0.6252  -14.0012 C   0  0  0  0  0  0  0  0  0  0  0  0
  -15.6278   -2.7768  -12.9605 N   0  0  0  0  0  0  0  0  0  0  0  0
  -15.8663   -3.0643  -11.6243 C   0  0  0  0  0  0  0  0  0  0  0  0
  -15.7031   -2.3190  -10.6696 O   0  0  0  0  0  0  0  0  0  0  0  0
  -15.8328   -3.5040  -13.6337 H   0  0  0  0  0  0  0  0  0  0  0  0
  -16.3518   -4.4565  -11.3647 C   0  0  0  0  0  0  0  0  0  0  0  0
  -15.4735   -5.6428  -11.7180 C   0  0  0  0  0  0  0  0  0  0  0  0
  -16.6873   -5.3422  -12.5448 C   0  0  0  0  0  0  0  0  0  0  0  0
  -19.6925    3.4592  -15.3205 C   0  0  0  0  0  0  0  0  0  0  0  0
  -22.7758    0.8007  -13.8416 C   0  0  0  0  0  0  0  0  0  0  0  0
  -22.8836    2.1874  -13.6755 C   0  0  0  0  0  0  0  0  0  0  0  0
  -21.8858    3.0456  -14.1440 C   0  0  0  0  0  0  0  0  0  0  0  0
  -20.7500    2.5317  -14.7811 C   0  0  0  0  0  0  0  0  0  0  0  0
  -20.6430    1.1437  -14.9527 C   0  0  0  0  0  0  0  0  0  0  0  0
  -21.6485    0.2872  -14.4916 C   0  0  0  0  0  0  0  0  0  0  0  0
  -25.9773   -1.5208  -10.8352 C   0  0  0  0  0  0  0  0  0  0  0  0
  -25.2381   -1.0757  -11.9912 N   0  0  0  0  0  0  0  0  0  0  0  0
  -24.2937   -0.0852  -12.0354 C   0  0  0  0  0  0  0  0  0  0  0  0
  -23.8240   -0.0638  -13.3309 C   0  0  0  0  0  0  0  0  0  0  0  0
  -24.5692   -1.0772  -13.9826 C   0  0  0  0  0  0  0  0  0  0  0  0
  -25.4282   -1.6905  -13.1708 N   0  0  0  0  0  0  0  0  0  0  0  0
 26 27  1  0  0  0
 27 28  1  0  0  0
 27 31  1  0  0  0
 28 29  2  0  0  0
 29 20  1  0  0  0
 29 30  1  0  0  0
 20 21  1  0  0  0
 20 25  2  0  0  0
 21 22  2  0  0  0
 22 23  1  0  0  0
 23 19  1  0  0  0
 23 24  2  0  0  0
 19  1  1  0  0  0
  1  2  1  0  0  0
  1  5  1  0  0  0
  2  3  2  0  0  0
  3  6  1  0  0  0
  3  4  1  0  0  0
  6  7  1  0  0  0
  6 11  2  0  0  0
  7  8  2  0  0  0
  8  9  1  0  0  0
  9 10  2  0  0  0
 10 12  1  0  0  0
 10 11  1  0  0  0
 12 13  1  0  0  0
 12 15  1  0  0  0
 13 14  2  0  0  0
 13 16  1  0  0  0
 16 17  1  0  0  0
 16 18  1  0  0  0
 17 18  1  0  0  0
  4  5  2  0  0  0
 24 25  1  0  0  0
 30 31  2  0  0  0
M  END
> <minimizedAffinity>
-10.42152

$$$$
