CHEMBL215691


 41 45  0  0  0  0  0  0  0  0999 V2000
  -18.2477    1.0389  -15.1288 C   0  0  0  0  0  0  0  0  0  0  0  0
  -17.1260    2.0330  -15.3047 C   0  0  0  0  0  0  0  0  0  0  0  0
  -17.4540    3.2836  -15.8776 C   0  0  0  0  0  0  0  0  0  0  0  0
  -16.4710    4.2219  -16.2073 C   0  0  0  0  0  0  0  0  0  0  0  0
  -15.1434    3.9267  -15.9282 C   0  0  0  0  0  0  0  0  0  0  0  0
  -14.8182    2.7227  -15.2982 C   0  0  0  0  0  0  0  0  0  0  0  0
  -15.7725    1.7269  -15.0100 C   0  0  0  0  0  0  0  0  0  0  0  0
  -15.2550    0.4167  -14.5330 C   0  0  0  0  0  0  0  0  0  0  0  0
  -14.2325   -0.2229  -15.2620 C   0  0  0  0  0  0  0  0  0  0  0  0
  -13.6792   -1.4401  -14.8567 C   0  0  0  0  0  0  0  0  0  0  0  0
  -14.1499   -2.1057  -13.7446 C   0  0  0  0  0  0  0  0  0  0  0  0
  -13.6347   -3.2999  -13.4363 N   0  0  0  0  0  0  0  0  0  0  0  0
  -14.1307   -3.9490  -12.3787 C   0  0  0  0  0  0  0  0  0  0  0  0
  -15.0922   -3.4563  -11.5872 N   0  0  0  0  0  0  0  0  0  0  0  0
  -15.5765   -2.2367  -11.9054 C   0  0  0  0  0  0  0  0  0  0  0  0
  -15.1563   -1.4954  -12.9995 C   0  0  0  0  0  0  0  0  0  0  0  0
  -15.6839   -0.2303  -13.3653 C   0  0  0  0  0  0  0  0  0  0  0  0
  -13.6528   -5.1899  -12.0525 N   0  0  0  0  0  0  0  0  0  0  0  0
  -12.6790   -5.1877  -11.7951 H   0  0  0  0  0  0  0  0  0  0  0  0
  -14.5267   -6.3121  -11.7458 C   0  0  0  0  0  0  0  0  0  0  0  0
  -13.7148   -7.5839  -11.4926 C   0  0  0  0  0  0  0  0  0  0  0  0
  -13.0559   -8.1243  -12.7622 C   0  0  0  0  0  0  0  0  0  0  0  0
  -13.9972   -8.2983  -13.8747 N   0  0  0  0  0  0  0  0  0  0  0  0
  -13.2674   -8.6692  -15.0937 C   0  0  0  0  0  0  0  0  0  0  0  0
  -14.7959   -7.0895  -14.1357 C   0  0  0  0  0  0  0  0  0  0  0  0
  -15.5071   -6.5643  -12.8904 C   0  0  0  0  0  0  0  0  0  0  0  0
  -14.0014    4.7653  -16.3669 C   0  0  0  0  0  0  0  0  0  0  0  0
  -13.2548    5.1914  -15.4926 O   0  0  0  0  0  0  0  0  0  0  0  0
  -13.9371    5.0415  -17.7181 N   0  0  0  0  0  0  0  0  0  0  0  0
  -14.7258    4.7427  -18.2733 H   0  0  0  0  0  0  0  0  0  0  0  0
  -13.0022    5.9131  -18.3359 C   0  0  0  0  0  0  0  0  0  0  0  0
  -11.6501    5.5650  -18.4589 C   0  0  0  0  0  0  0  0  0  0  0  0
  -10.7234    6.4449  -19.0078 C   0  0  0  0  0  0  0  0  0  0  0  0
  -11.1390    7.6909  -19.4535 C   0  0  0  0  0  0  0  0  0  0  0  0
  -12.4910    8.0724  -19.3711 C   0  0  0  0  0  0  0  0  0  0  0  0
  -13.4412    7.1702  -18.8193 C   0  0  0  0  0  0  0  0  0  0  0  0
  -14.8984    7.5526  -18.7070 C   0  0  0  0  0  0  0  0  0  0  0  0
  -12.8740    9.4519  -19.8636 C   0  0  0  0  0  0  0  0  0  0  0  0
  -13.8606    9.4444  -20.8052 F   0  0  0  0  0  0  0  0  0  0  0  0
  -13.3293   10.2584  -18.8645 F   0  0  0  0  0  0  0  0  0  0  0  0
  -11.8295   10.1120  -20.4382 F   0  0  0  0  0  0  0  0  0  0  0  0
  1  2  1  0  0  0
  2  3  1  0  0  0
  2  7  2  0  0  0
  3  4  2  0  0  0
  4  5  1  0  0  0
  5 27  1  0  0  0
  5  6  2  0  0  0
 27 28  2  0  0  0
 27 29  1  0  0  0
 29 31  1  0  0  0
 29 30  1  0  0  0
 31 32  1  0  0  0
 31 36  2  0  0  0
 32 33  2  0  0  0
 33 34  1  0  0  0
 34 35  2  0  0  0
 35 38  1  0  0  0
 35 36  1  0  0  0
 38 39  1  0  0  0
 38 40  1  0  0  0
 38 41  1  0  0  0
 36 37  1  0  0  0
  6  7  1  0  0  0
  7  8  1  0  0  0
  8  9  1  0  0  0
  8 17  2  0  0  0
  9 10  2  0  0  0
 10 11  1  0  0  0
 11 12  1  0  0  0
 11 16  2  0  0  0
 12 13  2  0  0  0
 13 18  1  0  0  0
 13 14  1  0  0  0
 18 20  1  0  0  0
 18 19  1  0  0  0
 20 21  1  0  0  0
 20 26  1  0  0  0
 21 22  1  0  0  0
 22 23  1  0  0  0
 23 24  1  0  0  0
 23 25  1  0  0  0
 25 26  1  0  0  0
 14 15  2  0  0  0
 15 16  1  0  0  0
 16 17  1  0  0  0
M  END
> <minimizedAffinity>
-7.97753

$$$$
