CHEMBL3914955


 38 42  0  0  0  0  0  0  0  0999 V2000
  -15.7101    1.8357  -15.0949 N   0  0  0  0  0  0  0  0  0  0  0  0
  -17.1871    1.9042  -15.1433 C   0  0  0  0  0  0  0  0  0  0  0  0
  -17.7125    2.9900  -15.8206 C   0  0  0  0  0  0  0  0  0  0  0  0
  -18.9989    3.4103  -15.6013 C   0  0  0  0  0  0  0  0  0  0  0  0
  -19.8706    2.6908  -14.8375 C   0  0  0  0  0  0  0  0  0  0  0  0
  -20.9903    3.3747  -14.6411 N   0  0  0  0  0  0  0  0  0  0  0  0
  -21.9964    2.7095  -14.0914 C   0  0  0  0  0  0  0  0  0  0  0  0
  -21.9147    1.3613  -13.8186 C   0  0  0  0  0  0  0  0  0  0  0  0
  -20.7039    0.6819  -13.9039 N   0  0  0  0  0  0  0  0  0  0  0  0
  -19.5780    1.3864  -14.3910 C   0  0  0  0  0  0  0  0  0  0  0  0
  -18.1431    1.0382  -14.5000 C   0  0  0  0  0  0  0  0  0  0  0  0
  -23.2149    0.7301  -13.5705 C   0  0  0  0  0  0  0  0  0  0  0  0
  -23.9409    0.6317  -12.3467 C   0  0  0  0  0  0  0  0  0  0  0  0
  -24.8957   -0.3077  -12.3695 N   0  0  0  0  0  0  0  0  0  0  0  0
  -24.7772   -0.8433  -13.5950 N   0  0  0  0  0  0  0  0  0  0  0  0
  -25.7898   -1.7370  -14.1108 C   0  0  0  0  0  0  0  0  0  0  0  0
  -23.6826   -0.3756  -14.2726 C   0  0  0  0  0  0  0  0  0  0  0  0
  -13.9745    2.2661  -18.4276 C   0  0  0  0  0  0  0  0  0  0  0  0
  -13.4485    3.5560  -18.3121 C   0  0  0  0  0  0  0  0  0  0  0  0
  -13.6463    4.2848  -17.1478 C   0  0  0  0  0  0  0  0  0  0  0  0
  -14.3824    3.7161  -16.1055 C   0  0  0  0  0  0  0  0  0  0  0  0
  -14.9952    2.4491  -16.1991 C   0  0  0  0  0  0  0  0  0  0  0  0
  -14.7329    1.7154  -17.3716 C   0  0  0  0  0  0  0  0  0  0  0  0
  -13.7386    0.0519  -19.2824 C   0  0  0  0  0  0  0  0  0  0  0  0
  -13.7855    1.4595  -19.5246 O   0  0  0  0  0  0  0  0  0  0  0  0
  -13.1549    5.5369  -16.8934 O   0  0  0  0  0  0  0  0  0  0  0  0
  -12.5170    5.7370  -15.6366 C   0  0  0  0  0  0  0  0  0  0  0  0
  -15.2408    0.4526  -14.7288 C   0  0  0  0  0  0  0  0  0  0  0  0
  -15.1715   -0.0273  -13.2464 C   0  0  0  0  0  0  0  0  0  0  0  0
  -15.5366   -1.4766  -12.8773 C   0  0  0  0  0  0  0  0  0  0  0  0
  -14.4849   -2.1147  -12.0592 N   0  0  0  0  0  0  0  0  0  0  0  0
  -13.3794   -2.8048  -12.7422 C   0  0  0  0  0  0  0  0  0  0  0  0
  -13.5996   -4.2885  -13.1152 C   0  0  0  0  0  0  0  0  0  0  0  0
  -14.3050   -4.4971  -14.4491 C   0  0  0  0  0  0  0  0  0  0  0  0
  -14.2011   -5.0633  -12.0685 O   0  0  0  0  0  0  0  0  0  0  0  0
  -15.2824   -4.4389  -11.3633 C   0  0  0  0  0  0  0  0  0  0  0  0
  -16.6086   -4.6353  -12.0845 C   0  0  0  0  0  0  0  0  0  0  0  0
  -14.9713   -2.9783  -10.9716 C   0  0  0  0  0  0  0  0  0  0  0  0
 24 25  1  0  0  0
 25 18  1  0  0  0
 18 19  1  0  0  0
 18 23  2  0  0  0
 19 20  2  0  0  0
 20 26  1  0  0  0
 20 21  1  0  0  0
 26 27  1  0  0  0
 21 22  2  0  0  0
 22  1  1  0  0  0
 22 23  1  0  0  0
  1 28  1  0  0  0
  1  2  1  0  0  0
 28 29  1  0  0  0
 29 30  1  0  0  0
 30 31  1  0  0  0
 31 32  1  0  0  0
 31 38  1  0  0  0
 32 33  1  0  0  0
 33 35  1  0  0  0
 33 34  1  0  0  0
 35 36  1  0  0  0
 36 38  1  0  0  0
 36 37  1  0  0  0
  2  3  1  0  0  0
  2 11  2  0  0  0
  3  4  2  0  0  0
  4  5  1  0  0  0
  5  6  1  0  0  0
  5 10  2  0  0  0
  6  7  2  0  0  0
  7  8  1  0  0  0
  8 12  1  0  0  0
  8  9  2  0  0  0
 12 13  1  0  0  0
 12 17  2  0  0  0
 13 14  2  0  0  0
 14 15  1  0  0  0
 15 16  1  0  0  0
 15 17  1  0  0  0
  9 10  1  0  0  0
 10 11  1  0  0  0
M  END
> <minimizedAffinity>
-8.80204

$$$$
