CHEMBL3671562


 38 41  0  0  0  0  0  0  0  0999 V2000
  -28.4214   -4.6677   -5.4293 C   0  0  0  0  0  0  0  0  0  0  0  0
  -28.1938   -6.0033   -5.0935 C   0  0  0  0  0  0  0  0  0  0  0  0
  -28.5645   -7.0333   -5.9750 C   0  0  0  0  0  0  0  0  0  0  0  0
  -28.5855   -8.3924   -5.6488 C   0  0  0  0  0  0  0  0  0  0  0  0
  -28.9483   -9.3345   -6.5389 N   0  0  0  0  0  0  0  0  0  0  0  0
  -29.3502   -8.9120   -7.7344 C   0  0  0  0  0  0  0  0  0  0  0  0
  -29.4420   -7.6398   -8.1327 N   0  0  0  0  0  0  0  0  0  0  0  0
  -29.0584   -6.7072   -7.2565 C   0  0  0  0  0  0  0  0  0  0  0  0
  -29.1871   -5.3620   -7.6022 C   0  0  0  0  0  0  0  0  0  0  0  0
  -28.8546   -4.3297   -6.7172 C   0  0  0  0  0  0  0  0  0  0  0  0
  -29.5711   -3.4097   -3.6807 C   0  0  0  0  0  0  0  0  0  0  0  0
  -29.5008   -2.8058   -2.6140 O   0  0  0  0  0  0  0  0  0  0  0  0
  -28.4225   -3.7270   -4.3810 N   0  0  0  0  0  0  0  0  0  0  0  0
  -27.6646   -3.7972   -3.7099 H   0  0  0  0  0  0  0  0  0  0  0  0
  -31.6737   -4.6375   -3.4284 C   0  0  0  0  0  0  0  0  0  0  0  0
  -30.8642   -3.9183   -4.2158 C   0  0  0  0  0  0  0  0  0  0  0  0
  -28.3197   -8.7995   -4.3048 N   0  0  0  0  0  0  0  0  0  0  0  0
  -28.4763   -8.0459   -3.6441 H   0  0  0  0  0  0  0  0  0  0  0  0
  -27.2124   -9.6108   -3.9531 C   0  0  0  0  0  0  0  0  0  0  0  0
  -25.9120   -9.0898   -3.9904 C   0  0  0  0  0  0  0  0  0  0  0  0
  -24.8409   -9.8000   -3.4522 C   0  0  0  0  0  0  0  0  0  0  0  0
  -25.0591  -11.0626   -2.9043 C   0  0  0  0  0  0  0  0  0  0  0  0
  -23.6387  -11.9515   -2.0321 Br  0  0  0  0  0  0  0  0  0  0  0  0
  -26.3213  -11.6481   -2.9591 C   0  0  0  0  0  0  0  0  0  0  0  0
  -27.3857  -10.9206   -3.4906 C   0  0  0  0  0  0  0  0  0  0  0  0
  -28.6091  -11.4730   -3.5023 F   0  0  0  0  0  0  0  0  0  0  0  0
  -29.0313   -3.0565   -7.2101 O   0  0  0  0  0  0  0  0  0  0  0  0
  -27.8651   -2.4728   -7.8147 C   0  0  0  0  0  0  0  0  0  0  0  0
  -28.0311   -2.3187   -9.3312 C   0  0  0  0  0  0  0  0  0  0  0  0
  -26.7612   -2.0538   -9.9957 N   0  0  0  0  0  0  0  0  0  0  0  0
  -26.6710   -1.7405  -11.3388 C   0  0  0  0  0  0  0  0  0  0  0  0
  -27.6778   -1.5977  -12.0295 O   0  0  0  0  0  0  0  0  0  0  0  0
  -25.8969   -2.1807   -9.4830 H   0  0  0  0  0  0  0  0  0  0  0  0
  -25.3183   -1.5967  -11.8750 C   0  0  0  0  0  0  0  0  0  0  0  0
  -24.1376   -1.5156  -11.1549 C   0  0  0  0  0  0  0  0  0  0  0  0
  -22.9860   -1.4224  -11.9906 C   0  0  0  0  0  0  0  0  0  0  0  0
  -23.3224   -1.4010  -13.3248 C   0  0  0  0  0  0  0  0  0  0  0  0
  -25.0126   -1.4879  -13.5611 S   0  0  0  0  0  0  0  0  0  0  0  0
 15 16  2  0  0  0
 16 11  1  0  0  0
 11 12  2  0  0  0
 11 13  1  0  0  0
 13  1  1  0  0  0
 13 14  1  0  0  0
  1  2  1  0  0  0
  1 10  2  0  0  0
  2  3  2  0  0  0
  3  4  1  0  0  0
  3  8  1  0  0  0
  4 17  1  0  0  0
  4  5  2  0  0  0
 17 19  1  0  0  0
 17 18  1  0  0  0
 19 20  1  0  0  0
 19 25  2  0  0  0
 20 21  2  0  0  0
 21 22  1  0  0  0
 22 23  1  0  0  0
 22 24  2  0  0  0
 24 25  1  0  0  0
 25 26  1  0  0  0
  5  6  1  0  0  0
  6  7  2  0  0  0
  7  8  1  0  0  0
  8  9  2  0  0  0
  9 10  1  0  0  0
 10 27  1  0  0  0
 27 28  1  0  0  0
 28 29  1  0  0  0
 29 30  1  0  0  0
 30 31  1  0  0  0
 30 33  1  0  0  0
 31 32  2  0  0  0
 31 34  1  0  0  0
 34 35  2  0  0  0
 34 38  1  0  0  0
 35 36  1  0  0  0
 36 37  2  0  0  0
 37 38  1  0  0  0
M  END
> <minimizedAffinity>
-9.15435

$$$$
