CHEMBL1940856


 22 24  0  0  0  0  0  0  0  0999 V2000
  -26.3783   -1.5661  -10.9248 C   0  0  0  0  0  0  0  0  0  0  0  0
  -25.1491   -1.2943  -11.7401 C   0  0  0  0  0  0  0  0  0  0  0  0
  -24.2963   -2.3227  -12.1424 C   0  0  0  0  0  0  0  0  0  0  0  0
  -23.1654   -2.0333  -12.9096 C   0  0  0  0  0  0  0  0  0  0  0  0
  -22.8680   -0.7068  -13.2718 C   0  0  0  0  0  0  0  0  0  0  0  0
  -21.7285   -0.3673  -14.0266 C   0  0  0  0  0  0  0  0  0  0  0  0
  -21.4387    0.9677  -14.3424 C   0  0  0  0  0  0  0  0  0  0  0  0
  -22.3464    1.9092  -13.8457 C   0  0  0  0  0  0  0  0  0  0  0  0
  -22.1456    3.6187  -13.9771 Cl  0  0  0  0  0  0  0  0  0  0  0  0
  -23.4698    1.6178  -13.1491 N   0  0  0  0  0  0  0  0  0  0  0  0
  -23.7204    0.3349  -12.8641 C   0  0  0  0  0  0  0  0  0  0  0  0
  -24.8499    0.0214  -12.1214 C   0  0  0  0  0  0  0  0  0  0  0  0
  -20.1906    1.2287  -15.0900 C   0  0  0  0  0  0  0  0  0  0  0  0
  -19.1044    1.8394  -14.5917 C   0  0  0  0  0  0  0  0  0  0  0  0
  -17.8637    2.0686  -15.4013 C   0  0  0  0  0  0  0  0  0  0  0  0
  -17.8690    2.8919  -16.3108 O   0  0  0  0  0  0  0  0  0  0  0  0
  -16.7079    1.2782  -14.9946 C   0  0  0  0  0  0  0  0  0  0  0  0
  -16.4797    0.6260  -13.7920 C   0  0  0  0  0  0  0  0  0  0  0  0
  -15.1939    0.0108  -13.7389 C   0  0  0  0  0  0  0  0  0  0  0  0
  -14.5080    0.2089  -14.9078 C   0  0  0  0  0  0  0  0  0  0  0  0
  -12.9158   -0.3302  -15.2573 Cl  0  0  0  0  0  0  0  0  0  0  0  0
  -15.3842    1.0764  -16.0677 S   0  0  0  0  0  0  0  0  0  0  0  0
  1  2  1  0  0  0
  2  3  1  0  0  0
  2 12  2  0  0  0
  3  4  2  0  0  0
  4  5  1  0  0  0
  5  6  1  0  0  0
  5 11  2  0  0  0
  6  7  2  0  0  0
  7 13  1  0  0  0
  7  8  1  0  0  0
 13 14  2  0  0  0
 14 15  1  0  0  0
 15 16  2  0  0  0
 15 17  1  0  0  0
 17 18  2  0  0  0
 17 22  1  0  0  0
 18 19  1  0  0  0
 19 20  2  0  0  0
 20 21  1  0  0  0
 20 22  1  0  0  0
  8  9  1  0  0  0
  8 10  2  0  0  0
 10 11  1  0  0  0
 11 12  1  0  0  0
M  END
> <minimizedAffinity>
-8.65200

$$$$
