CHEMBL1993424


 30 33  0  0  0  0  0  0  0  0999 V2000
  -26.4425   -1.6481  -10.7819 C   0  0  0  0  0  0  0  0  0  0  0  0
  -27.6400   -1.8819  -11.3555 N   0  0  0  0  0  0  0  0  0  0  0  0
  -27.7423   -1.8434  -12.7071 C   0  0  0  0  0  0  0  0  0  0  0  0
  -26.6139   -1.5957  -13.4777 C   0  0  0  0  0  0  0  0  0  0  0  0
  -26.3084   -1.4875  -14.8589 C   0  0  0  0  0  0  0  0  0  0  0  0
  -24.9520   -1.2590  -14.9663 C   0  0  0  0  0  0  0  0  0  0  0  0
  -24.4272   -1.2055  -13.6940 N   0  0  0  0  0  0  0  0  0  0  0  0
  -25.4328   -1.4078  -12.7793 C   0  0  0  0  0  0  0  0  0  0  0  0
  -25.2940   -1.4309  -11.4466 N   0  0  0  0  0  0  0  0  0  0  0  0
  -26.4392   -1.6649   -9.3831 N   0  0  0  0  0  0  0  0  0  0  0  0
  -25.4897   -1.5831   -9.0407 H   0  0  0  0  0  0  0  0  0  0  0  0
  -28.7826   -1.9512   -6.5239 C   0  0  0  0  0  0  0  0  0  0  0  0
  -29.4263   -3.1614   -6.7956 C   0  0  0  0  0  0  0  0  0  0  0  0
  -29.0516   -3.8921   -7.9129 C   0  0  0  0  0  0  0  0  0  0  0  0
  -28.0459   -3.4079   -8.7489 C   0  0  0  0  0  0  0  0  0  0  0  0
  -27.3809   -2.2001   -8.4906 C   0  0  0  0  0  0  0  0  0  0  0  0
  -27.7594   -1.4705   -7.3532 C   0  0  0  0  0  0  0  0  0  0  0  0
  -27.9325   -0.2327   -4.6493 N   0  0  0  0  0  0  0  0  0  0  0  0
  -29.3452   -0.9903   -5.1550 S   0  0  0  0  0  0  0  0  0  0  0  0
  -29.7437   -1.8831   -4.0906 O   0  0  0  0  0  0  0  0  0  0  0  0
  -30.1897    0.0795   -5.6305 O   0  0  0  0  0  0  0  0  0  0  0  0
  -27.8737   -0.2802   -3.6298 H   0  0  0  0  0  0  0  0  0  0  0  0
  -27.8913    0.7164   -5.0173 H   0  0  0  0  0  0  0  0  0  0  0  0
  -23.0088   -1.0867  -13.3771 C   0  0  0  0  0  0  0  0  0  0  0  0
  -22.4279    0.2371  -13.8108 C   0  0  0  0  0  0  0  0  0  0  0  0
  -23.0628    1.4369  -13.4603 C   0  0  0  0  0  0  0  0  0  0  0  0
  -22.5400    2.6666  -13.8668 C   0  0  0  0  0  0  0  0  0  0  0  0
  -21.3723    2.7109  -14.6245 C   0  0  0  0  0  0  0  0  0  0  0  0
  -20.7237    1.5273  -14.9705 C   0  0  0  0  0  0  0  0  0  0  0  0
  -21.2471    0.2968  -14.5660 C   0  0  0  0  0  0  0  0  0  0  0  0
 18 19  1  0  0  0
 18 22  1  0  0  0
 18 23  1  0  0  0
 19 20  2  0  0  0
 19 21  2  0  0  0
 19 12  1  0  0  0
 12 13  1  0  0  0
 12 17  2  0  0  0
 13 14  2  0  0  0
 14 15  1  0  0  0
 15 16  2  0  0  0
 16 10  1  0  0  0
 16 17  1  0  0  0
 10  1  1  0  0  0
 10 11  1  0  0  0
  1  2  1  0  0  0
  1  9  2  0  0  0
  2  3  2  0  0  0
  3  4  1  0  0  0
  4  5  1  0  0  0
  4  8  2  0  0  0
  5  6  2  0  0  0
  6  7  1  0  0  0
  7 24  1  0  0  0
  7  8  1  0  0  0
 24 25  1  0  0  0
 25 26  1  0  0  0
 25 30  2  0  0  0
 26 27  2  0  0  0
 27 28  1  0  0  0
 28 29  2  0  0  0
 29 30  1  0  0  0
  8  9  1  0  0  0
M  END
> <minimizedAffinity>
-9.77248

$$$$
