CHEMBL1097824


 41 46  0  0  0  0  0  0  0  0999 V2000
  -23.5393   -0.7280  -13.4856 C   0  0  0  0  0  0  0  0  0  0  0  0
  -24.8081   -1.1798  -13.8375 C   0  0  0  0  0  0  0  0  0  0  0  0
  -25.6403   -1.7315  -12.8682 C   0  0  0  0  0  0  0  0  0  0  0  0
  -25.2474   -1.7992  -11.5265 C   0  0  0  0  0  0  0  0  0  0  0  0
  -24.0452   -1.2027  -11.1487 C   0  0  0  0  0  0  0  0  0  0  0  0
  -23.1964   -0.6831  -12.1328 C   0  0  0  0  0  0  0  0  0  0  0  0
  -22.0199   -0.1611  -11.7545 F   0  0  0  0  0  0  0  0  0  0  0  0
  -26.0352   -2.4610  -10.5567 N   0  0  0  0  0  0  0  0  0  0  0  0
  -27.0766   -1.8367   -9.8827 C   0  0  0  0  0  0  0  0  0  0  0  0
  -27.4753   -0.7011  -10.1350 O   0  0  0  0  0  0  0  0  0  0  0  0
  -25.9884   -3.4725  -10.5140 H   0  0  0  0  0  0  0  0  0  0  0  0
  -27.7402   -2.6134   -8.8528 C   0  0  0  0  0  0  0  0  0  0  0  0
  -28.0788   -3.9757   -8.7663 C   0  0  0  0  0  0  0  0  0  0  0  0
  -28.5249   -4.3293   -7.5582 N   0  0  0  0  0  0  0  0  0  0  0  0
  -28.5904   -3.1578   -6.8646 N   0  0  0  0  0  0  0  0  0  0  0  0
  -28.0711   -2.1023   -7.6082 C   0  0  0  0  0  0  0  0  0  0  0  0
  -27.8531   -0.8436   -7.1274 N   0  0  0  0  0  0  0  0  0  0  0  0
  -27.6783   -0.7119   -6.1321 H   0  0  0  0  0  0  0  0  0  0  0  0
  -27.2249   -0.2543   -7.6890 H   0  0  0  0  0  0  0  0  0  0  0  0
  -29.1043   -3.1181   -5.5426 C   0  0  0  0  0  0  0  0  0  0  0  0
  -30.4354   -3.4828   -5.3103 C   0  0  0  0  0  0  0  0  0  0  0  0
  -30.9327   -3.4881   -4.0057 C   0  0  0  0  0  0  0  0  0  0  0  0
  -30.1204   -3.0892   -2.9429 C   0  0  0  0  0  0  0  0  0  0  0  0
  -28.8029   -2.6988   -3.1763 C   0  0  0  0  0  0  0  0  0  0  0  0
  -28.2887   -2.7232   -4.4725 C   0  0  0  0  0  0  0  0  0  0  0  0
  -22.5981   -0.3114  -14.4013 O   0  0  0  0  0  0  0  0  0  0  0  0
  -18.3870    1.4798  -15.0389 C   0  0  0  0  0  0  0  0  0  0  0  0
  -18.9343    2.6885  -14.6719 C   0  0  0  0  0  0  0  0  0  0  0  0
  -20.3362    2.5939  -14.4330 C   0  0  0  0  0  0  0  0  0  0  0  0
  -21.1475    3.6346  -14.0956 N   0  0  0  0  0  0  0  0  0  0  0  0
  -22.4501    3.3354  -13.9403 C   0  0  0  0  0  0  0  0  0  0  0  0
  -22.9998    2.0739  -14.0649 C   0  0  0  0  0  0  0  0  0  0  0  0
  -22.1546    0.9962  -14.3331 C   0  0  0  0  0  0  0  0  0  0  0  0
  -20.8045    1.2870  -14.5738 C   0  0  0  0  0  0  0  0  0  0  0  0
  -19.5394    0.2263  -15.0378 S   0  0  0  0  0  0  0  0  0  0  0  0
  -13.6996   -0.1579  -15.1975 C   0  0  0  0  0  0  0  0  0  0  0  0
  -14.9052    0.5819  -15.4638 N   0  0  0  0  0  0  0  0  0  0  0  0
  -15.1204    1.4520  -16.4909 C   0  0  0  0  0  0  0  0  0  0  0  0
  -16.3628    1.8840  -16.4993 N   0  0  0  0  0  0  0  0  0  0  0  0
  -16.9575    1.2932  -15.4088 C   0  0  0  0  0  0  0  0  0  0  0  0
  -16.0569    0.4974  -14.7372 C   0  0  0  0  0  0  0  0  0  0  0  0
 36 37  1  0  0  0
 37 38  1  0  0  0
 37 41  1  0  0  0
 38 39  2  0  0  0
 39 40  1  0  0  0
 40 27  1  0  0  0
 40 41  2  0  0  0
 27 28  2  0  0  0
 27 35  1  0  0  0
 28 29  1  0  0  0
 29 30  1  0  0  0
 29 34  2  0  0  0
 30 31  2  0  0  0
 31 32  1  0  0  0
 32 33  2  0  0  0
 33 26  1  0  0  0
 33 34  1  0  0  0
 26  1  1  0  0  0
  1  2  1  0  0  0
  1  6  2  0  0  0
  2  3  2  0  0  0
  3  4  1  0  0  0
  4  8  1  0  0  0
  4  5  2  0  0  0
  8  9  1  0  0  0
  8 11  1  0  0  0
  9 10  2  0  0  0
  9 12  1  0  0  0
 12 13  1  0  0  0
 12 16  2  0  0  0
 13 14  2  0  0  0
 14 15  1  0  0  0
 15 20  1  0  0  0
 15 16  1  0  0  0
 20 21  1  0  0  0
 20 25  2  0  0  0
 21 22  2  0  0  0
 22 23  1  0  0  0
 23 24  2  0  0  0
 24 25  1  0  0  0
 16 17  1  0  0  0
 17 18  1  0  0  0
 17 19  1  0  0  0
  5  6  1  0  0  0
  6  7  1  0  0  0
 34 35  1  0  0  0
M  END
> <minimizedAffinity>
-10.23029

$$$$
