CHEMBL151358


 31 36  0  0  0  0  0  0  0  0999 V2000
  -24.5165  -10.3994   -5.1552 C   0  0  0  0  0  0  0  0  0  0  0  0
  -24.9486   -9.3437   -4.3428 C   0  0  0  0  0  0  0  0  0  0  0  0
  -26.2971   -8.9315   -4.3140 C   0  0  0  0  0  0  0  0  0  0  0  0
  -27.2160   -9.6208   -5.1250 C   0  0  0  0  0  0  0  0  0  0  0  0
  -28.6023   -9.4607   -5.3079 N   0  0  0  0  0  0  0  0  0  0  0  0
  -29.0283  -10.1650   -6.4396 C   0  0  0  0  0  0  0  0  0  0  0  0
  -30.0272   -9.7925   -7.3383 C   0  0  0  0  0  0  0  0  0  0  0  0
  -29.4586   -9.0246   -8.3810 C   0  0  0  0  0  0  0  0  0  0  0  0
  -28.3786   -9.6864   -8.9778 C   0  0  0  0  0  0  0  0  0  0  0  0
  -27.5866  -10.6398   -8.2549 C   0  0  0  0  0  0  0  0  0  0  0  0
  -27.8766  -10.7764   -6.8665 C   0  0  0  0  0  0  0  0  0  0  0  0
  -26.7754  -10.5896   -6.0352 C   0  0  0  0  0  0  0  0  0  0  0  0
  -25.4275  -10.9883   -6.0398 C   0  0  0  0  0  0  0  0  0  0  0  0
  -26.9604  -11.6521   -9.0981 C   0  0  0  0  0  0  0  0  0  0  0  0
  -27.5827  -11.3052  -10.3569 N   0  0  0  0  0  0  0  0  0  0  0  0
  -28.4057  -10.1794  -10.3411 C   0  0  0  0  0  0  0  0  0  0  0  0
  -29.1163   -9.8807  -11.3024 O   0  0  0  0  0  0  0  0  0  0  0  0
  -29.7064   -7.6601   -7.8060 C   0  0  0  0  0  0  0  0  0  0  0  0
  -28.8525   -6.6298   -7.4130 C   0  0  0  0  0  0  0  0  0  0  0  0
  -29.2662   -5.7461   -6.3728 C   0  0  0  0  0  0  0  0  0  0  0  0
  -30.5386   -5.8389   -5.7688 C   0  0  0  0  0  0  0  0  0  0  0  0
  -31.4152   -6.8330   -6.1553 C   0  0  0  0  0  0  0  0  0  0  0  0
  -30.9411   -7.7498   -7.0808 C   0  0  0  0  0  0  0  0  0  0  0  0
  -31.3525   -9.1918   -7.0477 C   0  0  0  0  0  0  0  0  0  0  0  0
  -29.1083   -8.6757   -4.9168 H   0  0  0  0  0  0  0  0  0  0  0  0
  -27.7475  -11.9896  -11.0825 H   0  0  0  0  0  0  0  0  0  0  0  0
  -23.1055  -10.9361   -5.1014 C   0  0  0  0  0  0  0  0  0  0  0  0
  -22.3544  -10.4266   -6.2019 O   0  0  0  0  0  0  0  0  0  0  0  0
  -21.1638  -12.4620   -5.8760 C   0  0  0  0  0  0  0  0  0  0  0  0
  -21.6050  -11.4244   -6.9048 C   0  0  0  0  0  0  0  0  0  0  0  0
  -22.4398  -12.0921   -7.9948 C   0  0  0  0  0  0  0  0  0  0  0  0
 29 30  1  0  0  0
 30 31  1  0  0  0
 30 28  1  0  0  0
 28 27  1  0  0  0
 27  1  1  0  0  0
  1  2  1  0  0  0
  1 13  2  0  0  0
  2  3  2  0  0  0
  3  4  1  0  0  0
  4  5  1  0  0  0
  4 12  2  0  0  0
  5  6  1  0  0  0
  5 25  1  0  0  0
  6  7  1  0  0  0
  6 11  2  0  0  0
  7  8  2  0  0  0
  7 24  1  0  0  0
  8  9  1  0  0  0
  8 18  1  0  0  0
  9 10  2  0  0  0
  9 16  1  0  0  0
 10 11  1  0  0  0
 10 14  1  0  0  0
 11 12  1  0  0  0
 12 13  1  0  0  0
 14 15  1  0  0  0
 15 16  1  0  0  0
 15 26  1  0  0  0
 16 17  2  0  0  0
 18 19  1  0  0  0
 18 23  2  0  0  0
 19 20  2  0  0  0
 20 21  1  0  0  0
 21 22  2  0  0  0
 22 23  1  0  0  0
 23 24  1  0  0  0
M  END
> <minimizedAffinity>
-8.24819

$$$$
