CHEMBL3960598


 43 45  0  0  0  0  0  0  0  0999 V2000
  -26.3546   -1.3904  -11.3993 C   0  0  0  0  0  0  0  0  0  0  0  0
  -27.1046   -1.9630  -12.4171 C   0  0  0  0  0  0  0  0  0  0  0  0
  -26.7653   -1.9131  -13.7311 N   0  0  0  0  0  0  0  0  0  0  0  0
  -25.6309   -1.2619  -14.0564 C   0  0  0  0  0  0  0  0  0  0  0  0
  -25.2722   -1.3317  -15.4010 N   0  0  0  0  0  0  0  0  0  0  0  0
  -24.8219   -0.6322  -13.1006 C   0  0  0  0  0  0  0  0  0  0  0  0
  -25.1946   -0.6976  -11.7551 C   0  0  0  0  0  0  0  0  0  0  0  0
  -26.0418   -1.7542  -15.9114 H   0  0  0  0  0  0  0  0  0  0  0  0
  -24.9788   -0.4393  -15.7771 H   0  0  0  0  0  0  0  0  0  0  0  0
  -26.7864   -1.5483   -9.9832 C   0  0  0  0  0  0  0  0  0  0  0  0
  -26.1202   -0.9669   -9.1316 O   0  0  0  0  0  0  0  0  0  0  0  0
  -28.1862   -2.8371   -8.2634 S   0  0  0  0  0  0  0  0  0  0  0  0
  -28.5612   -1.4974   -7.1467 C   0  0  0  0  0  0  0  0  0  0  0  0
  -27.2332   -3.7015   -7.5939 O   0  0  0  0  0  0  0  0  0  0  0  0
  -27.9711   -2.2404   -9.6699 N   0  0  0  0  0  0  0  0  0  0  0  0
  -29.7412   -3.7252   -8.3057 C   0  0  0  0  0  0  0  0  0  0  0  0
  -29.6363   -5.0935   -7.6347 C   0  0  0  0  0  0  0  0  0  0  0  0
  -30.1465   -5.0452   -6.1939 C   0  0  0  0  0  0  0  0  0  0  0  0
  -29.1441   -5.6511   -5.2085 C   0  0  0  0  0  0  0  0  0  0  0  0
  -28.4130   -4.5771   -4.4333 C   0  0  0  0  0  0  0  0  0  0  0  0
  -27.2594   -4.6582   -4.0337 O   0  0  0  0  0  0  0  0  0  0  0  0
  -29.0232   -2.8260   -3.0065 C   0  0  0  0  0  0  0  0  0  0  0  0
  -29.2302   -3.5032   -4.2478 O   0  0  0  0  0  0  0  0  0  0  0  0
  -23.6362    0.0850  -13.4832 C   0  0  0  0  0  0  0  0  0  0  0  0
  -22.6652    0.6929  -13.8349 C   0  0  0  0  0  0  0  0  0  0  0  0
  -21.5000    1.4228  -14.2446 C   0  0  0  0  0  0  0  0  0  0  0  0
  -21.6098    2.7866  -14.5174 C   0  0  0  0  0  0  0  0  0  0  0  0
  -20.4917    3.5003  -14.9393 C   0  0  0  0  0  0  0  0  0  0  0  0
  -19.2607    2.8566  -15.0799 C   0  0  0  0  0  0  0  0  0  0  0  0
  -19.1248    1.4962  -14.7918 C   0  0  0  0  0  0  0  0  0  0  0  0
  -20.2600    0.7794  -14.3801 C   0  0  0  0  0  0  0  0  0  0  0  0
  -17.8972    0.8008  -14.9091 N   0  0  0  0  0  0  0  0  0  0  0  0
  -16.8993    0.7173  -13.9484 C   0  0  0  0  0  0  0  0  0  0  0  0
  -16.9384    1.1993  -12.8205 O   0  0  0  0  0  0  0  0  0  0  0  0
  -17.7626    0.2723  -15.7645 H   0  0  0  0  0  0  0  0  0  0  0  0
  -15.6649   -0.0247  -14.3224 C   0  0  0  0  0  0  0  0  0  0  0  0
  -14.8316    0.5170  -15.3181 C   0  0  0  0  0  0  0  0  0  0  0  0
  -13.6428   -0.1283  -15.6900 C   0  0  0  0  0  0  0  0  0  0  0  0
  -12.7683    0.4205  -16.7803 C   0  0  0  0  0  0  0  0  0  0  0  0
  -13.2810   -1.3141  -15.0390 C   0  0  0  0  0  0  0  0  0  0  0  0
  -14.1010   -1.8538  -14.0469 C   0  0  0  0  0  0  0  0  0  0  0  0
  -15.2887   -1.2134  -13.7016 C   0  0  0  0  0  0  0  0  0  0  0  0
  -16.0588   -1.7690  -12.7535 F   0  0  0  0  0  0  0  0  0  0  0  0
 22 23  1  0  0  0
 23 20  1  0  0  0
 20 21  2  0  0  0
 20 19  1  0  0  0
 19 18  1  0  0  0
 18 17  1  0  0  0
 17 16  1  0  0  0
 16 12  1  0  0  0
 12 13  1  0  0  0
 12 14  2  0  0  0
 12 15  2  0  0  0
 15 10  1  0  0  0
 10 11  2  0  0  0
 10  1  1  0  0  0
  1  2  1  0  0  0
  1  7  2  0  0  0
  2  3  2  0  0  0
  3  4  1  0  0  0
  4  5  1  0  0  0
  4  6  2  0  0  0
  5  8  1  0  0  0
  5  9  1  0  0  0
  6 24  1  0  0  0
  6  7  1  0  0  0
 24 25  3  0  0  0
 25 26  1  0  0  0
 26 27  1  0  0  0
 26 31  2  0  0  0
 27 28  2  0  0  0
 28 29  1  0  0  0
 29 30  2  0  0  0
 30 32  1  0  0  0
 30 31  1  0  0  0
 32 33  1  0  0  0
 32 35  1  0  0  0
 33 34  2  0  0  0
 33 36  1  0  0  0
 36 37  1  0  0  0
 36 42  2  0  0  0
 37 38  2  0  0  0
 38 39  1  0  0  0
 38 40  1  0  0  0
 40 41  2  0  0  0
 41 42  1  0  0  0
 42 43  1  0  0  0
M  END
> <minimizedAffinity>
-8.54902

$$$$
