CHEMBL4798752


 46 51  0  0  0  0  0  0  0  0999 V2000
  -28.4679   -8.5519   -5.2833 C   0  0  0  0  0  0  0  0  0  0  0  0
  -28.4459   -8.1216   -6.6161 C   0  0  0  0  0  0  0  0  0  0  0  0
  -28.8582   -6.8315   -6.9574 C   0  0  0  0  0  0  0  0  0  0  0  0
  -29.3686   -5.9608   -5.9890 C   0  0  0  0  0  0  0  0  0  0  0  0
  -29.3539   -6.3812   -4.6517 C   0  0  0  0  0  0  0  0  0  0  0  0
  -28.9100   -7.6601   -4.3035 C   0  0  0  0  0  0  0  0  0  0  0  0
  -28.9251   -8.0271   -3.0144 F   0  0  0  0  0  0  0  0  0  0  0  0
  -29.9123   -4.7284   -6.4094 N   0  0  0  0  0  0  0  0  0  0  0  0
  -30.8821   -4.8001   -6.7302 H   0  0  0  0  0  0  0  0  0  0  0  0
  -29.6791   -3.4491   -5.8499 C   0  0  0  0  0  0  0  0  0  0  0  0
  -30.1879   -3.1752   -4.6212 N   0  0  0  0  0  0  0  0  0  0  0  0
  -29.9240   -1.9866   -4.0471 C   0  0  0  0  0  0  0  0  0  0  0  0
  -29.1389   -1.0154   -4.6297 C   0  0  0  0  0  0  0  0  0  0  0  0
  -28.6224   -1.2660   -5.8960 C   0  0  0  0  0  0  0  0  0  0  0  0
  -27.8037   -0.3179   -6.5255 N   0  0  0  0  0  0  0  0  0  0  0  0
  -27.3955   -0.4953   -7.8187 C   0  0  0  0  0  0  0  0  0  0  0  0
  -27.6438   -1.5858   -8.5603 C   0  0  0  0  0  0  0  0  0  0  0  0
  -28.4248   -2.6947   -7.9201 C   0  0  0  0  0  0  0  0  0  0  0  0
  -28.7214   -3.7087   -8.5480 O   0  0  0  0  0  0  0  0  0  0  0  0
  -28.8993   -2.4965   -6.5200 C   0  0  0  0  0  0  0  0  0  0  0  0
  -27.7183    0.6070   -6.1174 H   0  0  0  0  0  0  0  0  0  0  0  0
  -27.2394   -1.6227   -9.9700 C   0  0  0  0  0  0  0  0  0  0  0  0
  -25.8856   -1.6362  -10.3319 C   0  0  0  0  0  0  0  0  0  0  0  0
  -25.5214   -1.6342  -11.6811 C   0  0  0  0  0  0  0  0  0  0  0  0
  -26.5086   -1.6143  -12.6608 C   0  0  0  0  0  0  0  0  0  0  0  0
  -26.1568   -1.6073  -13.9531 F   0  0  0  0  0  0  0  0  0  0  0  0
  -27.8553   -1.5995  -12.3193 C   0  0  0  0  0  0  0  0  0  0  0  0
  -28.2221   -1.6034  -10.9726 C   0  0  0  0  0  0  0  0  0  0  0  0
  -28.1203   -9.8420   -4.9065 O   0  0  0  0  0  0  0  0  0  0  0  0
  -25.5666  -11.6344   -8.0111 C   0  0  0  0  0  0  0  0  0  0  0  0
  -26.4537  -11.0432   -7.0885 C   0  0  0  0  0  0  0  0  0  0  0  0
  -26.0107  -10.6287   -5.7985 C   0  0  0  0  0  0  0  0  0  0  0  0
  -26.7636  -10.0994   -4.7334 C   0  0  0  0  0  0  0  0  0  0  0  0
  -26.2471   -9.8040   -3.5170 N   0  0  0  0  0  0  0  0  0  0  0  0
  -24.9299   -9.9330   -3.3938 C   0  0  0  0  0  0  0  0  0  0  0  0
  -24.1027  -10.3798   -4.3358 N   0  0  0  0  0  0  0  0  0  0  0  0
  -24.6493  -10.7436   -5.4968 C   0  0  0  0  0  0  0  0  0  0  0  0
  -23.7797  -11.2488   -6.4415 C   0  0  0  0  0  0  0  0  0  0  0  0
  -24.2015  -11.7167   -7.6882 C   0  0  0  0  0  0  0  0  0  0  0  0
  -23.2989  -12.1878   -8.6056 O   0  0  0  0  0  0  0  0  0  0  0  0
  -21.9342  -12.2120   -8.1737 C   0  0  0  0  0  0  0  0  0  0  0  0
  -26.1621  -12.0624   -9.1702 O   0  0  0  0  0  0  0  0  0  0  0  0
  -26.9379  -11.1137   -9.9103 C   0  0  0  0  0  0  0  0  0  0  0  0
  -28.3031  -11.6985  -10.2699 C   0  0  0  0  0  0  0  0  0  0  0  0
  -29.7936  -10.0048   -9.5465 C   0  0  0  0  0  0  0  0  0  0  0  0
  -29.2416  -11.2834   -9.2732 O   0  0  0  0  0  0  0  0  0  0  0  0
 45 46  1  0  0  0
 46 44  1  0  0  0
 44 43  1  0  0  0
 43 42  1  0  0  0
 42 30  1  0  0  0
 30 31  1  0  0  0
 30 39  2  0  0  0
 31 32  2  0  0  0
 32 33  1  0  0  0
 32 37  1  0  0  0
 33 29  1  0  0  0
 33 34  2  0  0  0
 29  1  1  0  0  0
  1  2  1  0  0  0
  1  6  2  0  0  0
  2  3  2  0  0  0
  3  4  1  0  0  0
  4  8  1  0  0  0
  4  5  2  0  0  0
  8 10  1  0  0  0
  8  9  1  0  0  0
 10 11  1  0  0  0
 10 20  2  0  0  0
 11 12  2  0  0  0
 12 13  1  0  0  0
 13 14  2  0  0  0
 14 15  1  0  0  0
 14 20  1  0  0  0
 15 16  1  0  0  0
 15 21  1  0  0  0
 16 17  2  0  0  0
 17 22  1  0  0  0
 17 18  1  0  0  0
 22 23  1  0  0  0
 22 28  2  0  0  0
 23 24  2  0  0  0
 24 25  1  0  0  0
 25 26  1  0  0  0
 25 27  2  0  0  0
 27 28  1  0  0  0
 18 19  2  0  0  0
 18 20  1  0  0  0
  5  6  1  0  0  0
  6  7  1  0  0  0
 34 35  1  0  0  0
 35 36  2  0  0  0
 36 37  1  0  0  0
 37 38  2  0  0  0
 38 39  1  0  0  0
 39 40  1  0  0  0
 40 41  1  0  0  0
M  END
> <minimizedAffinity>
-8.90197

$$$$
