CHEMBL598435


 26 30  0  0  0  0  0  0  0  0999 V2000
  -12.1780   -0.2708  -15.3768 O   0  0  0  0  0  0  0  0  0  0  0  0
  -12.8683    0.6892  -15.7083 C   0  0  0  0  0  0  0  0  0  0  0  0
  -13.2611    1.7997  -14.7569 C   0  0  0  0  0  0  0  0  0  0  0  0
  -14.7504    1.7647  -14.7269 C   0  0  0  0  0  0  0  0  0  0  0  0
  -15.3255    0.7346  -13.8133 C   0  0  0  0  0  0  0  0  0  0  0  0
  -16.4491    0.1231  -14.0017 N   0  0  0  0  0  0  0  0  0  0  0  0
  -17.2494    0.7087  -14.9282 C   0  0  0  0  0  0  0  0  0  0  0  0
  -18.4747    0.3979  -15.4479 C   0  0  0  0  0  0  0  0  0  0  0  0
  -19.1034    1.6607  -15.2696 C   0  0  0  0  0  0  0  0  0  0  0  0
  -18.1945    2.6425  -15.5370 N   0  0  0  0  0  0  0  0  0  0  0  0
  -16.9749    1.9533  -15.5123 N   0  0  0  0  0  0  0  0  0  0  0  0
  -15.6021    2.3036  -15.6354 C   0  0  0  0  0  0  0  0  0  0  0  0
  -14.9421    2.7462  -16.9129 C   0  0  0  0  0  0  0  0  0  0  0  0
  -15.3766    3.9077  -17.4581 N   0  0  0  0  0  0  0  0  0  0  0  0
  -14.7829    4.2996  -18.6280 C   0  0  0  0  0  0  0  0  0  0  0  0
  -13.8078    3.5901  -19.3073 C   0  0  0  0  0  0  0  0  0  0  0  0
  -13.3964    2.3804  -18.7771 C   0  0  0  0  0  0  0  0  0  0  0  0
  -13.9226    1.9690  -17.5500 C   0  0  0  0  0  0  0  0  0  0  0  0
  -13.2888    0.8188  -17.0078 N   0  0  0  0  0  0  0  0  0  0  0  0
  -12.7992    0.1925  -17.6318 H   0  0  0  0  0  0  0  0  0  0  0  0
  -20.4793    1.7884  -14.7012 C   0  0  0  0  0  0  0  0  0  0  0  0
  -21.1912    0.6058  -14.3669 C   0  0  0  0  0  0  0  0  0  0  0  0
  -22.4855    0.6216  -13.8360 C   0  0  0  0  0  0  0  0  0  0  0  0
  -23.1054    1.8364  -13.5950 C   0  0  0  0  0  0  0  0  0  0  0  0
  -22.4064    3.0154  -13.8540 C   0  0  0  0  0  0  0  0  0  0  0  0
  -21.0991    2.9993  -14.3876 C   0  0  0  0  0  0  0  0  0  0  0  0
  1  2  2  0  0  0
  2  3  1  0  0  0
  2 19  1  0  0  0
  3  4  1  0  0  0
  4  5  1  0  0  0
  4 12  2  0  0  0
  5  6  2  0  0  0
  6  7  1  0  0  0
  7  8  2  0  0  0
  7 11  1  0  0  0
  8  9  1  0  0  0
  9 21  1  0  0  0
  9 10  2  0  0  0
 21 22  1  0  0  0
 21 26  2  0  0  0
 22 23  2  0  0  0
 23 24  1  0  0  0
 24 25  2  0  0  0
 25 26  1  0  0  0
 10 11  1  0  0  0
 11 12  1  0  0  0
 12 13  1  0  0  0
 13 14  1  0  0  0
 13 18  2  0  0  0
 14 15  2  0  0  0
 15 16  1  0  0  0
 16 17  2  0  0  0
 17 18  1  0  0  0
 18 19  1  0  0  0
 19 20  1  0  0  0
M  END
> <minimizedAffinity>
-8.42362

$$$$
