CHEMBL4575352


 42 46  0  0  0  0  0  0  0  0999 V2000
  -24.9872   -1.3411  -12.7905 C   0  0  0  0  0  0  0  0  0  0  0  0
  -24.5478   -1.3346  -11.4602 C   0  0  0  0  0  0  0  0  0  0  0  0
  -25.4487   -1.5232  -10.4178 C   0  0  0  0  0  0  0  0  0  0  0  0
  -26.7772   -1.8182  -10.6972 C   0  0  0  0  0  0  0  0  0  0  0  0
  -27.2329   -1.7481  -12.0237 C   0  0  0  0  0  0  0  0  0  0  0  0
  -26.3385   -1.5218  -13.0584 C   0  0  0  0  0  0  0  0  0  0  0  0
  -26.7902   -1.5251  -14.3214 F   0  0  0  0  0  0  0  0  0  0  0  0
  -27.6385   -2.3770   -9.7484 N   0  0  0  0  0  0  0  0  0  0  0  0
  -28.6050   -2.3253  -10.0690 H   0  0  0  0  0  0  0  0  0  0  0  0
  -27.6850   -2.2788   -8.3599 C   0  0  0  0  0  0  0  0  0  0  0  0
  -27.4665   -0.9768   -7.9875 N   0  0  0  0  0  0  0  0  0  0  0  0
  -28.0196   -0.5006   -6.8572 C   0  0  0  0  0  0  0  0  0  0  0  0
  -28.9275   -1.2173   -6.1492 C   0  0  0  0  0  0  0  0  0  0  0  0
  -29.0580   -2.5423   -6.5049 C   0  0  0  0  0  0  0  0  0  0  0  0
  -29.9929   -3.2839   -5.7427 N   0  0  0  0  0  0  0  0  0  0  0  0
  -29.4117   -4.4288   -5.2833 C   0  0  0  0  0  0  0  0  0  0  0  0
  -28.7970   -5.3192   -6.0848 C   0  0  0  0  0  0  0  0  0  0  0  0
  -28.4459   -4.7444   -7.4890 C   0  0  0  0  0  0  0  0  0  0  0  0
  -28.2187   -5.4687   -8.4584 O   0  0  0  0  0  0  0  0  0  0  0  0
  -28.3300   -3.1900   -7.5246 C   0  0  0  0  0  0  0  0  0  0  0  0
  -30.6931   -3.6122   -6.4314 H   0  0  0  0  0  0  0  0  0  0  0  0
  -29.2365   -6.6531   -5.5442 C   0  0  0  0  0  0  0  0  0  0  0  0
  -28.1930   -7.4380   -5.0103 C   0  0  0  0  0  0  0  0  0  0  0  0
  -28.1107   -8.8091   -5.3022 C   0  0  0  0  0  0  0  0  0  0  0  0
  -29.0950   -9.4195   -6.0705 C   0  0  0  0  0  0  0  0  0  0  0  0
  -28.9359  -10.6923   -6.4613 F   0  0  0  0  0  0  0  0  0  0  0  0
  -30.2055   -8.7027   -6.4953 C   0  0  0  0  0  0  0  0  0  0  0  0
  -30.2994   -7.3287   -6.2061 C   0  0  0  0  0  0  0  0  0  0  0  0
  -24.1533   -1.2287  -13.8804 O   0  0  0  0  0  0  0  0  0  0  0  0
  -21.2560    0.9210  -14.4554 C   0  0  0  0  0  0  0  0  0  0  0  0
  -22.0017   -0.2349  -14.3580 C   0  0  0  0  0  0  0  0  0  0  0  0
  -23.3278   -0.1353  -13.9463 C   0  0  0  0  0  0  0  0  0  0  0  0
  -23.8548    1.0890  -13.5706 C   0  0  0  0  0  0  0  0  0  0  0  0
  -23.0215    2.1842  -13.6572 C   0  0  0  0  0  0  0  0  0  0  0  0
  -21.7407    2.1218  -14.0918 N   0  0  0  0  0  0  0  0  0  0  0  0
  -17.9596    1.4789  -15.6752 O   0  0  0  0  0  0  0  0  0  0  0  0
  -19.0036    1.7429  -15.0684 C   0  0  0  0  0  0  0  0  0  0  0  0
  -19.9843    0.8018  -15.0107 N   0  0  0  0  0  0  0  0  0  0  0  0
  -19.7305   -0.0771  -15.4408 H   0  0  0  0  0  0  0  0  0  0  0  0
  -19.1467    3.0436  -14.2766 C   0  0  0  0  0  0  0  0  0  0  0  0
  -19.7090    4.0853  -15.0706 O   0  0  0  0  0  0  0  0  0  0  0  0
  -19.5399    3.8332  -15.9993 H   0  0  0  0  0  0  0  0  0  0  0  0
 36 37  2  0  0  0
 37 40  1  0  0  0
 37 38  1  0  0  0
 40 41  1  0  0  0
 41 42  1  0  0  0
 38 30  1  0  0  0
 38 39  1  0  0  0
 30 31  1  0  0  0
 30 35  2  0  0  0
 31 32  2  0  0  0
 32 29  1  0  0  0
 32 33  1  0  0  0
 29  1  1  0  0  0
  1  2  1  0  0  0
  1  6  2  0  0  0
  2  3  2  0  0  0
  3  4  1  0  0  0
  4  8  1  0  0  0
  4  5  2  0  0  0
  8 10  1  0  0  0
  8  9  1  0  0  0
 10 11  1  0  0  0
 10 20  2  0  0  0
 11 12  2  0  0  0
 12 13  1  0  0  0
 13 14  2  0  0  0
 14 15  1  0  0  0
 14 20  1  0  0  0
 15 16  1  0  0  0
 15 21  1  0  0  0
 16 17  2  0  0  0
 17 22  1  0  0  0
 17 18  1  0  0  0
 22 23  1  0  0  0
 22 28  2  0  0  0
 23 24  2  0  0  0
 24 25  1  0  0  0
 25 26  1  0  0  0
 25 27  2  0  0  0
 27 28  1  0  0  0
 18 19  2  0  0  0
 18 20  1  0  0  0
  5  6  1  0  0  0
  6  7  1  0  0  0
 33 34  2  0  0  0
 34 35  1  0  0  0
M  END
> <minimizedAffinity>
-11.15240

$$$$
