CHEMBL427550


 34 37  0  0  0  0  0  0  0  0999 V2000
  -14.0176   -4.7571  -14.3821 C   0  0  0  0  0  0  0  0  0  0  0  0
  -13.4556   -3.8804  -15.2474 N   0  0  0  0  0  0  0  0  0  0  0  0
  -13.6136   -2.5053  -15.1034 N   0  0  0  0  0  0  0  0  0  0  0  0
  -14.2585   -1.9846  -14.0421 C   0  0  0  0  0  0  0  0  0  0  0  0
  -14.8550   -2.8438  -13.0966 C   0  0  0  0  0  0  0  0  0  0  0  0
  -15.5278   -2.3448  -11.9540 C   0  0  0  0  0  0  0  0  0  0  0  0
  -16.1819   -3.1762  -11.0541 C   0  0  0  0  0  0  0  0  0  0  0  0
  -16.2542   -4.5283  -11.3228 C   0  0  0  0  0  0  0  0  0  0  0  0
  -15.6124   -5.0492  -12.4500 C   0  0  0  0  0  0  0  0  0  0  0  0
  -14.8138   -4.2522  -13.3153 C   0  0  0  0  0  0  0  0  0  0  0  0
  -13.0904   -8.4932  -13.9457 C   0  0  0  0  0  0  0  0  0  0  0  0
  -13.1714   -8.9568  -15.2563 C   0  0  0  0  0  0  0  0  0  0  0  0
  -13.3973   -8.0491  -16.2799 C   0  0  0  0  0  0  0  0  0  0  0  0
  -13.6144   -6.6933  -15.9877 C   0  0  0  0  0  0  0  0  0  0  0  0
  -13.6756   -6.2015  -14.6599 C   0  0  0  0  0  0  0  0  0  0  0  0
  -13.3476   -7.1370  -13.6562 C   0  0  0  0  0  0  0  0  0  0  0  0
  -13.5621   -9.4382  -11.7574 N   0  0  0  0  0  0  0  0  0  0  0  0
  -12.7394   -9.4367  -12.8536 C   0  0  0  0  0  0  0  0  0  0  0  0
  -11.7746  -10.1964  -12.9354 O   0  0  0  0  0  0  0  0  0  0  0  0
  -13.3722  -10.0976  -11.0213 H   0  0  0  0  0  0  0  0  0  0  0  0
  -14.4783   -8.9982  -11.7737 H   0  0  0  0  0  0  0  0  0  0  0  0
  -14.3848   -0.5776  -13.8854 N   0  0  0  0  0  0  0  0  0  0  0  0
  -13.4845   -0.1222  -13.8233 H   0  0  0  0  0  0  0  0  0  0  0  0
  -15.4400    0.2638  -14.2753 C   0  0  0  0  0  0  0  0  0  0  0  0
  -16.4380    0.6567  -13.3798 C   0  0  0  0  0  0  0  0  0  0  0  0
  -17.4719    1.5179  -13.7711 C   0  0  0  0  0  0  0  0  0  0  0  0
  -17.5350    1.9930  -15.0785 C   0  0  0  0  0  0  0  0  0  0  0  0
  -16.5436    1.6082  -15.9831 C   0  0  0  0  0  0  0  0  0  0  0  0
  -15.4956    0.7694  -15.5806 C   0  0  0  0  0  0  0  0  0  0  0  0
  -18.5312    2.7664  -15.6007 O   0  0  0  0  0  0  0  0  0  0  0  0
  -19.8637    2.4978  -15.1762 C   0  0  0  0  0  0  0  0  0  0  0  0
  -20.0578    2.9170  -13.9024 F   0  0  0  0  0  0  0  0  0  0  0  0
  -20.7374    3.1545  -15.9785 F   0  0  0  0  0  0  0  0  0  0  0  0
  -20.1673    0.7574  -15.2592 Cl  0  0  0  0  0  0  0  0  0  0  0  0
 17 18  1  0  0  0
 17 20  1  0  0  0
 17 21  1  0  0  0
 18 19  2  0  0  0
 18 11  1  0  0  0
 11 12  1  0  0  0
 11 16  2  0  0  0
 12 13  2  0  0  0
 13 14  1  0  0  0
 14 15  2  0  0  0
 15  1  1  0  0  0
 15 16  1  0  0  0
  1  2  1  0  0  0
  1 10  2  0  0  0
  2  3  2  0  0  0
  3  4  1  0  0  0
  4 22  1  0  0  0
  4  5  2  0  0  0
 22 24  1  0  0  0
 22 23  1  0  0  0
 24 25  1  0  0  0
 24 29  2  0  0  0
 25 26  2  0  0  0
 26 27  1  0  0  0
 27 30  1  0  0  0
 27 28  2  0  0  0
 30 31  1  0  0  0
 31 32  1  0  0  0
 31 33  1  0  0  0
 31 34  1  0  0  0
 28 29  1  0  0  0
  5  6  1  0  0  0
  5 10  1  0  0  0
  6  7  2  0  0  0
  7  8  1  0  0  0
  8  9  2  0  0  0
  9 10  1  0  0  0
M  END
> <minimizedAffinity>
-9.05508

$$$$
