CHEMBL3676373


 39 41  0  0  0  0  0  0  0  0999 V2000
  -28.2471   -3.5129   -7.8326 C   0  0  0  0  0  0  0  0  0  0  0  0
  -28.6236   -3.1465   -6.5295 C   0  0  0  0  0  0  0  0  0  0  0  0
  -28.5659   -1.8141   -6.0678 C   0  0  0  0  0  0  0  0  0  0  0  0
  -28.8435   -1.3984   -4.7596 C   0  0  0  0  0  0  0  0  0  0  0  0
  -28.7744   -0.1009   -4.3968 N   0  0  0  0  0  0  0  0  0  0  0  0
  -28.4044    0.7717   -5.3320 C   0  0  0  0  0  0  0  0  0  0  0  0
  -28.0625    0.4709   -6.5852 N   0  0  0  0  0  0  0  0  0  0  0  0
  -28.1446   -0.8152   -6.9280 C   0  0  0  0  0  0  0  0  0  0  0  0
  -27.7469   -1.1711   -8.1966 C   0  0  0  0  0  0  0  0  0  0  0  0
  -27.7760   -2.4987   -8.6888 C   0  0  0  0  0  0  0  0  0  0  0  0
  -29.2938   -5.7656   -7.8173 C   0  0  0  0  0  0  0  0  0  0  0  0
  -30.4103   -5.4421   -7.4180 O   0  0  0  0  0  0  0  0  0  0  0  0
  -28.2806   -4.8899   -8.1941 N   0  0  0  0  0  0  0  0  0  0  0  0
  -27.5299   -5.2203   -8.7890 H   0  0  0  0  0  0  0  0  0  0  0  0
  -29.9203   -8.1299   -7.8819 C   0  0  0  0  0  0  0  0  0  0  0  0
  -28.9432   -7.2098   -7.9189 C   0  0  0  0  0  0  0  0  0  0  0  0
  -29.1054   -2.3653   -3.7583 N   0  0  0  0  0  0  0  0  0  0  0  0
  -28.7494   -2.0773   -2.8509 H   0  0  0  0  0  0  0  0  0  0  0  0
  -29.0328   -3.7566   -3.9747 C   0  0  0  0  0  0  0  0  0  0  0  0
  -27.7906   -4.3994   -4.0774 C   0  0  0  0  0  0  0  0  0  0  0  0
  -27.7107   -5.7873   -4.1759 C   0  0  0  0  0  0  0  0  0  0  0  0
  -28.8813   -6.5410   -4.1915 C   0  0  0  0  0  0  0  0  0  0  0  0
  -28.7682   -8.4263   -4.2463 Br  0  0  0  0  0  0  0  0  0  0  0  0
  -30.1273   -5.9203   -4.1472 C   0  0  0  0  0  0  0  0  0  0  0  0
  -30.1916   -4.5341   -4.0462 C   0  0  0  0  0  0  0  0  0  0  0  0
  -31.3931   -3.9387   -3.9767 F   0  0  0  0  0  0  0  0  0  0  0  0
  -27.3640   -2.7958   -9.9876 O   0  0  0  0  0  0  0  0  0  0  0  0
  -26.2400   -1.9935  -10.4374 C   0  0  0  0  0  0  0  0  0  0  0  0
  -26.4234   -1.2089  -11.7653 C   0  0  0  0  0  0  0  0  0  0  0  0
  -26.7602   -2.2038  -12.8841 C   0  0  0  0  0  0  0  0  0  0  0  0
  -27.5513   -0.1859  -11.5750 C   0  0  0  0  0  0  0  0  0  0  0  0
  -25.1485   -0.5013  -12.0688 N   0  0  0  0  0  0  0  0  0  0  0  0
  -23.9070   -1.0960  -12.1948 C   0  0  0  0  0  0  0  0  0  0  0  0
  -23.7244   -2.3090  -12.1534 O   0  0  0  0  0  0  0  0  0  0  0  0
  -25.1202    0.5148  -12.0932 H   0  0  0  0  0  0  0  0  0  0  0  0
  -22.7459   -0.1197  -12.4554 C   0  0  0  0  0  0  0  0  0  0  0  0
  -22.8227    0.5412  -13.7879 N   0  0  0  0  0  0  0  0  0  0  0  0
  -23.1317    1.9723  -13.6482 C   0  0  0  0  0  0  0  0  0  0  0  0
  -21.5121    0.4168  -14.4486 C   0  0  0  0  0  0  0  0  0  0  0  0
 15 16  2  0  0  0
 16 11  1  0  0  0
 11 12  2  0  0  0
 11 13  1  0  0  0
 13  1  1  0  0  0
 13 14  1  0  0  0
  1  2  1  0  0  0
  1 10  2  0  0  0
  2  3  2  0  0  0
  3  4  1  0  0  0
  3  8  1  0  0  0
  4 17  1  0  0  0
  4  5  2  0  0  0
 17 19  1  0  0  0
 17 18  1  0  0  0
 19 20  1  0  0  0
 19 25  2  0  0  0
 20 21  2  0  0  0
 21 22  1  0  0  0
 22 23  1  0  0  0
 22 24  2  0  0  0
 24 25  1  0  0  0
 25 26  1  0  0  0
  5  6  1  0  0  0
  6  7  2  0  0  0
  7  8  1  0  0  0
  8  9  2  0  0  0
  9 10  1  0  0  0
 10 27  1  0  0  0
 27 28  1  0  0  0
 28 29  1  0  0  0
 29 30  1  0  0  0
 29 31  1  0  0  0
 29 32  1  0  0  0
 32 33  1  0  0  0
 32 35  1  0  0  0
 33 34  2  0  0  0
 33 36  1  0  0  0
 36 37  1  0  0  0
 37 38  1  0  0  0
 37 39  1  0  0  0
M  END
> <minimizedAffinity>
-8.48655

$$$$
