CHEMBL3932832


 35 39  0  0  0  0  0  0  0  0999 V2000
  -27.5950   -9.2012   -4.6179 N   0  0  0  0  0  0  0  0  0  0  0  0
  -28.3839   -8.0061   -4.9140 C   0  0  0  0  0  0  0  0  0  0  0  0
  -29.5444   -8.2330   -5.6509 C   0  0  0  0  0  0  0  0  0  0  0  0
  -30.0776   -7.2408   -6.4507 C   0  0  0  0  0  0  0  0  0  0  0  0
  -29.5691   -5.9637   -6.4526 C   0  0  0  0  0  0  0  0  0  0  0  0
  -30.0806   -5.1695   -7.4019 N   0  0  0  0  0  0  0  0  0  0  0  0
  -29.7140   -3.8826   -7.3700 C   0  0  0  0  0  0  0  0  0  0  0  0
  -28.9225   -3.3717   -6.3610 C   0  0  0  0  0  0  0  0  0  0  0  0
  -28.3166   -4.1961   -5.4400 N   0  0  0  0  0  0  0  0  0  0  0  0
  -28.5901   -5.5631   -5.5143 C   0  0  0  0  0  0  0  0  0  0  0  0
  -27.9673   -6.6504   -4.7787 C   0  0  0  0  0  0  0  0  0  0  0  0
  -28.8767   -1.9165   -6.2586 C   0  0  0  0  0  0  0  0  0  0  0  0
  -27.7756   -1.0331   -6.4038 C   0  0  0  0  0  0  0  0  0  0  0  0
  -28.0617    0.2229   -6.0361 N   0  0  0  0  0  0  0  0  0  0  0  0
  -29.3478    0.1483   -5.6543 N   0  0  0  0  0  0  0  0  0  0  0  0
  -30.1388    1.3481   -5.5078 C   0  0  0  0  0  0  0  0  0  0  0  0
  -29.8123   -1.1383   -5.5953 C   0  0  0  0  0  0  0  0  0  0  0  0
  -25.7938  -10.9137   -7.4789 C   0  0  0  0  0  0  0  0  0  0  0  0
  -24.4760  -10.9351   -6.9971 C   0  0  0  0  0  0  0  0  0  0  0  0
  -24.1978  -10.4379   -5.7352 C   0  0  0  0  0  0  0  0  0  0  0  0
  -25.2423   -9.9051   -4.9604 C   0  0  0  0  0  0  0  0  0  0  0  0
  -26.5931   -9.8481   -5.3889 C   0  0  0  0  0  0  0  0  0  0  0  0
  -26.8335  -10.3799   -6.6691 C   0  0  0  0  0  0  0  0  0  0  0  0
  -22.9533  -10.3841   -5.1567 O   0  0  0  0  0  0  0  0  0  0  0  0
  -21.9580  -11.2575   -5.6843 C   0  0  0  0  0  0  0  0  0  0  0  0
  -26.0636  -11.3688   -8.9051 C   0  0  0  0  0  0  0  0  0  0  0  0
  -27.4240  -11.0736   -9.4111 N   0  0  0  0  0  0  0  0  0  0  0  0
  -28.6648  -10.2862  -11.4662 C   0  0  0  0  0  0  0  0  0  0  0  0
  -27.3729  -10.2780  -10.6501 C   0  0  0  0  0  0  0  0  0  0  0  0
  -28.2243  -12.3078   -9.5259 C   0  0  0  0  0  0  0  0  0  0  0  0
  -29.3793  -12.4633   -8.5386 C   0  0  0  0  0  0  0  0  0  0  0  0
  -28.2524   -9.9295   -3.4967 C   0  0  0  0  0  0  0  0  0  0  0  0
  -28.7068  -11.3720   -3.6692 C   0  0  0  0  0  0  0  0  0  0  0  0
  -29.8173  -11.8440   -4.5950 C   0  0  0  0  0  0  0  0  0  0  0  0
  -29.9677  -11.9907   -3.1101 C   0  0  0  0  0  0  0  0  0  0  0  0
 28 29  1  0  0  0
 29 27  1  0  0  0
 27 30  1  0  0  0
 27 26  1  0  0  0
 30 31  1  0  0  0
 26 18  1  0  0  0
 18 19  1  0  0  0
 18 23  2  0  0  0
 19 20  2  0  0  0
 20 24  1  0  0  0
 20 21  1  0  0  0
 24 25  1  0  0  0
 21 22  2  0  0  0
 22  1  1  0  0  0
 22 23  1  0  0  0
  1 32  1  0  0  0
  1  2  1  0  0  0
 32 33  1  0  0  0
 33 34  1  0  0  0
 33 35  1  0  0  0
 34 35  1  0  0  0
  2  3  1  0  0  0
  2 11  2  0  0  0
  3  4  2  0  0  0
  4  5  1  0  0  0
  5  6  1  0  0  0
  5 10  2  0  0  0
  6  7  2  0  0  0
  7  8  1  0  0  0
  8 12  1  0  0  0
  8  9  2  0  0  0
 12 13  1  0  0  0
 12 17  2  0  0  0
 13 14  2  0  0  0
 14 15  1  0  0  0
 15 16  1  0  0  0
 15 17  1  0  0  0
  9 10  1  0  0  0
 10 11  1  0  0  0
M  END
> <minimizedAffinity>
-7.32678

$$$$
