CHEMBL467365


 32 36  0  0  0  0  0  0  0  0999 V2000
  -28.5769   -1.1116   -5.7965 C   0  0  0  0  0  0  0  0  0  0  0  0
  -29.5313   -0.4011   -5.0251 C   0  0  0  0  0  0  0  0  0  0  0  0
  -29.9791    0.8500   -5.4207 C   0  0  0  0  0  0  0  0  0  0  0  0
  -29.4605    1.4226   -6.5763 C   0  0  0  0  0  0  0  0  0  0  0  0
  -28.5892    0.6958   -7.3784 C   0  0  0  0  0  0  0  0  0  0  0  0
  -28.1899   -0.6083   -7.0613 C   0  0  0  0  0  0  0  0  0  0  0  0
  -26.7166   -2.4106   -5.1231 O   0  0  0  0  0  0  0  0  0  0  0  0
  -27.9363   -2.3247   -5.2155 C   0  0  0  0  0  0  0  0  0  0  0  0
  -28.7874   -3.4233   -4.7576 C   0  0  0  0  0  0  0  0  0  0  0  0
  -28.7911   -3.9837   -3.4905 C   0  0  0  0  0  0  0  0  0  0  0  0
  -29.6333   -5.0644   -3.5321 N   0  0  0  0  0  0  0  0  0  0  0  0
  -29.7709   -5.4417   -4.8391 C   0  0  0  0  0  0  0  0  0  0  0  0
  -30.0151   -6.6748   -5.4469 C   0  0  0  0  0  0  0  0  0  0  0  0
  -30.1510   -6.6670   -6.8358 C   0  0  0  0  0  0  0  0  0  0  0  0
  -30.2110   -7.8345   -7.4890 F   0  0  0  0  0  0  0  0  0  0  0  0
  -30.2053   -5.4830   -7.5639 C   0  0  0  0  0  0  0  0  0  0  0  0
  -29.9326   -4.2592   -6.9492 C   0  0  0  0  0  0  0  0  0  0  0  0
  -29.5718   -4.2753   -5.5889 C   0  0  0  0  0  0  0  0  0  0  0  0
  -29.9590   -5.5935   -2.7339 H   0  0  0  0  0  0  0  0  0  0  0  0
  -27.3644   -1.3111   -7.9683 N   0  0  0  0  0  0  0  0  0  0  0  0
  -26.8471   -2.0560   -7.4871 H   0  0  0  0  0  0  0  0  0  0  0  0
  -27.9955   -1.7958   -9.2079 C   0  0  0  0  0  0  0  0  0  0  0  0
  -27.1347   -1.6598  -10.4512 C   0  0  0  0  0  0  0  0  0  0  0  0
  -27.7699   -1.7537  -11.6951 C   0  0  0  0  0  0  0  0  0  0  0  0
  -27.0512   -1.6494  -12.8919 C   0  0  0  0  0  0  0  0  0  0  0  0
  -25.6839   -1.4439  -12.8966 C   0  0  0  0  0  0  0  0  0  0  0  0
  -25.0595   -1.3394  -14.0878 N   0  0  0  0  0  0  0  0  0  0  0  0
  -23.7259   -1.1177  -14.0759 C   0  0  0  0  0  0  0  0  0  0  0  0
  -22.9789   -0.9902  -12.9305 C   0  0  0  0  0  0  0  0  0  0  0  0
  -23.6291   -1.1109  -11.7022 C   0  0  0  0  0  0  0  0  0  0  0  0
  -25.0179   -1.3385  -11.6584 C   0  0  0  0  0  0  0  0  0  0  0  0
  -25.7378   -1.4651  -10.4463 C   0  0  0  0  0  0  0  0  0  0  0  0
  7  8  2  0  0  0
  8  1  1  0  0  0
  8  9  1  0  0  0
  1  2  1  0  0  0
  1  6  2  0  0  0
  2  3  2  0  0  0
  3  4  1  0  0  0
  4  5  2  0  0  0
  5  6  1  0  0  0
  6 20  1  0  0  0
 20 22  1  0  0  0
 20 21  1  0  0  0
 22 23  1  0  0  0
 23 24  1  0  0  0
 23 32  2  0  0  0
 24 25  2  0  0  0
 25 26  1  0  0  0
 26 27  1  0  0  0
 26 31  2  0  0  0
 27 28  2  0  0  0
 28 29  1  0  0  0
 29 30  2  0  0  0
 30 31  1  0  0  0
 31 32  1  0  0  0
  9 10  2  0  0  0
  9 18  1  0  0  0
 10 11  1  0  0  0
 11 12  1  0  0  0
 11 19  1  0  0  0
 12 13  1  0  0  0
 12 18  2  0  0  0
 13 14  2  0  0  0
 14 15  1  0  0  0
 14 16  1  0  0  0
 16 17  2  0  0  0
 17 18  1  0  0  0
M  END
> <minimizedAffinity>
-10.85744

$$$$
