CHEMBL4516917


 28 30  0  0  0  0  0  0  0  0999 V2000
  -25.6998   -1.7829  -12.3174 C   0  0  0  0  0  0  0  0  0  0  0  0
  -26.6535   -1.9510  -13.3232 C   0  0  0  0  0  0  0  0  0  0  0  0
  -26.3856   -1.5703  -14.6315 C   0  0  0  0  0  0  0  0  0  0  0  0
  -25.1643   -0.9895  -14.9536 C   0  0  0  0  0  0  0  0  0  0  0  0
  -24.1969   -0.7637  -13.9716 C   0  0  0  0  0  0  0  0  0  0  0  0
  -24.4683   -1.1790  -12.6513 C   0  0  0  0  0  0  0  0  0  0  0  0
  -28.0216   -1.2349  -10.6047 O   0  0  0  0  0  0  0  0  0  0  0  0
  -27.0502   -1.8619  -10.2014 C   0  0  0  0  0  0  0  0  0  0  0  0
  -26.9127   -2.3077   -8.8946 N   0  0  0  0  0  0  0  0  0  0  0  0
  -25.9343   -2.1825  -10.9736 N   0  0  0  0  0  0  0  0  0  0  0  0
  -26.0156   -2.6808   -8.6314 H   0  0  0  0  0  0  0  0  0  0  0  0
  -25.2477   -2.7930  -10.5614 H   0  0  0  0  0  0  0  0  0  0  0  0
  -27.8286   -2.0825   -7.8357 C   0  0  0  0  0  0  0  0  0  0  0  0
  -27.9115   -0.8904   -7.1099 C   0  0  0  0  0  0  0  0  0  0  0  0
  -28.8117   -0.7583   -6.0466 C   0  0  0  0  0  0  0  0  0  0  0  0
  -29.6429   -1.8190   -5.6993 C   0  0  0  0  0  0  0  0  0  0  0  0
  -29.5839   -3.0052   -6.4246 C   0  0  0  0  0  0  0  0  0  0  0  0
  -28.6897   -3.1328   -7.4934 C   0  0  0  0  0  0  0  0  0  0  0  0
  -22.9746   -0.1085  -14.2622 N   0  0  0  0  0  0  0  0  0  0  0  0
  -22.6749    1.2255  -14.0043 C   0  0  0  0  0  0  0  0  0  0  0  0
  -23.4378    2.0775  -13.5577 O   0  0  0  0  0  0  0  0  0  0  0  0
  -22.2090   -0.6499  -14.6551 H   0  0  0  0  0  0  0  0  0  0  0  0
  -21.2667    1.6373  -14.2997 C   0  0  0  0  0  0  0  0  0  0  0  0
  -20.3908    0.6939  -14.8355 C   0  0  0  0  0  0  0  0  0  0  0  0
  -19.0967    1.0876  -15.1482 C   0  0  0  0  0  0  0  0  0  0  0  0
  -18.7213    2.4070  -14.9159 C   0  0  0  0  0  0  0  0  0  0  0  0
  -19.6572    3.2771  -14.3729 C   0  0  0  0  0  0  0  0  0  0  0  0
  -20.9278    2.9329  -14.0531 N   0  0  0  0  0  0  0  0  0  0  0  0
  7  8  2  0  0  0
  8  9  1  0  0  0
  8 10  1  0  0  0
  9 13  1  0  0  0
  9 11  1  0  0  0
 13 14  1  0  0  0
 13 18  2  0  0  0
 14 15  2  0  0  0
 15 16  1  0  0  0
 16 17  2  0  0  0
 17 18  1  0  0  0
 10  1  1  0  0  0
 10 12  1  0  0  0
  1  2  1  0  0  0
  1  6  2  0  0  0
  2  3  2  0  0  0
  3  4  1  0  0  0
  4  5  2  0  0  0
  5 19  1  0  0  0
  5  6  1  0  0  0
 19 20  1  0  0  0
 19 22  1  0  0  0
 20 21  2  0  0  0
 20 23  1  0  0  0
 23 24  1  0  0  0
 23 28  2  0  0  0
 24 25  2  0  0  0
 25 26  1  0  0  0
 26 27  2  0  0  0
 27 28  1  0  0  0
M  END
> <minimizedAffinity>
-10.20994

$$$$
