CHEMBL409673


 28 31  0  0  0  0  0  0  0  0999 V2000
  -12.9516    2.8271  -14.8609 C   0  0  0  0  0  0  0  0  0  0  0  0
  -12.9136    1.9104  -13.8323 C   0  0  0  0  0  0  0  0  0  0  0  0
  -14.1289    1.3228  -13.7126 N   0  0  0  0  0  0  0  0  0  0  0  0
  -14.3986    0.3781  -12.8025 N   0  0  0  0  0  0  0  0  0  0  0  0
  -15.5968   -0.0931  -12.8772 C   0  0  0  0  0  0  0  0  0  0  0  0
  -16.5543    0.2766  -13.7741 N   0  0  0  0  0  0  0  0  0  0  0  0
  -16.3083    1.2022  -14.6605 C   0  0  0  0  0  0  0  0  0  0  0  0
  -14.9966    1.8157  -14.6538 C   0  0  0  0  0  0  0  0  0  0  0  0
  -14.3123    2.7910  -15.4003 C   0  0  0  0  0  0  0  0  0  0  0  0
  -14.7239    3.6437  -16.5962 C   0  0  0  0  0  0  0  0  0  0  0  0
  -14.7424    2.8243  -17.8890 C   0  0  0  0  0  0  0  0  0  0  0  0
  -15.9939    4.4753  -16.4695 C   0  0  0  0  0  0  0  0  0  0  0  0
  -11.7894    3.6186  -15.2824 C   0  0  0  0  0  0  0  0  0  0  0  0
  -11.0308    3.3019  -16.1872 O   0  0  0  0  0  0  0  0  0  0  0  0
  -12.0631    5.9531  -15.2006 C   0  0  0  0  0  0  0  0  0  0  0  0
  -11.6481    4.7600  -14.5400 O   0  0  0  0  0  0  0  0  0  0  0  0
  -17.3194    1.5622  -15.5259 N   0  0  0  0  0  0  0  0  0  0  0  0
  -16.9728    2.1732  -16.2570 H   0  0  0  0  0  0  0  0  0  0  0  0
  -18.6171    1.9434  -15.0991 C   0  0  0  0  0  0  0  0  0  0  0  0
  -19.0290    3.2816  -15.1513 C   0  0  0  0  0  0  0  0  0  0  0  0
  -20.2620    3.7708  -14.8557 N   0  0  0  0  0  0  0  0  0  0  0  0
  -21.1283    2.8025  -14.5077 C   0  0  0  0  0  0  0  0  0  0  0  0
  -22.4392    3.0133  -14.1773 N   0  0  0  0  0  0  0  0  0  0  0  0
  -23.0449    1.8160  -13.8889 C   0  0  0  0  0  0  0  0  0  0  0  0
  -22.1014    0.8203  -14.0366 C   0  0  0  0  0  0  0  0  0  0  0  0
  -20.8823    1.4375  -14.4277 C   0  0  0  0  0  0  0  0  0  0  0  0
  -19.5857    0.9950  -14.7407 C   0  0  0  0  0  0  0  0  0  0  0  0
  -22.8729    3.9247  -14.1644 H   0  0  0  0  0  0  0  0  0  0  0  0
 15 16  1  0  0  0
 16 13  1  0  0  0
 13 14  2  0  0  0
 13  1  1  0  0  0
  1  2  2  0  0  0
  1  9  1  0  0  0
  2  3  1  0  0  0
  3  4  1  0  0  0
  3  8  1  0  0  0
  4  5  2  0  0  0
  5  6  1  0  0  0
  6  7  2  0  0  0
  7 17  1  0  0  0
  7  8  1  0  0  0
 17 19  1  0  0  0
 17 18  1  0  0  0
 19 20  1  0  0  0
 19 27  2  0  0  0
 20 21  2  0  0  0
 21 22  1  0  0  0
 22 23  1  0  0  0
 22 26  2  0  0  0
 23 24  1  0  0  0
 23 28  1  0  0  0
 24 25  2  0  0  0
 25 26  1  0  0  0
 26 27  1  0  0  0
  8  9  2  0  0  0
  9 10  1  0  0  0
 10 11  1  0  0  0
 10 12  1  0  0  0
M  END
> <minimizedAffinity>
-7.89951

$$$$
