CHEMBL2335377


 31 34  0  0  0  0  0  0  0  0999 V2000
  -30.5948   -2.8724   -2.2066 N   0  0  0  0  0  0  0  0  0  0  0  0
  -30.0548   -3.0688   -3.4619 C   0  0  0  0  0  0  0  0  0  0  0  0
  -30.3784   -4.2207   -4.0653 N   0  0  0  0  0  0  0  0  0  0  0  0
  -29.9656   -4.4607   -5.3364 C   0  0  0  0  0  0  0  0  0  0  0  0
  -29.1947   -3.4749   -5.9626 C   0  0  0  0  0  0  0  0  0  0  0  0
  -28.6106   -3.2864   -7.2414 C   0  0  0  0  0  0  0  0  0  0  0  0
  -28.0716   -2.0121   -7.2763 C   0  0  0  0  0  0  0  0  0  0  0  0
  -28.1525   -1.5069   -5.9965 N   0  0  0  0  0  0  0  0  0  0  0  0
  -28.8889   -2.3545   -5.2128 C   0  0  0  0  0  0  0  0  0  0  0  0
  -29.2702   -2.1035   -3.9538 N   0  0  0  0  0  0  0  0  0  0  0  0
  -30.8799   -3.7582   -1.8128 H   0  0  0  0  0  0  0  0  0  0  0  0
  -30.0075   -2.2689   -1.6521 H   0  0  0  0  0  0  0  0  0  0  0  0
  -27.8131   -0.6084   -5.6834 H   0  0  0  0  0  0  0  0  0  0  0  0
  -30.3692   -5.6207   -6.0101 N   0  0  0  0  0  0  0  0  0  0  0  0
  -31.2882   -5.5737   -6.4267 H   0  0  0  0  0  0  0  0  0  0  0  0
  -29.5881   -6.7181   -6.3981 C   0  0  0  0  0  0  0  0  0  0  0  0
  -29.5292   -7.0792   -7.7509 C   0  0  0  0  0  0  0  0  0  0  0  0
  -28.8045   -8.2012   -8.1580 C   0  0  0  0  0  0  0  0  0  0  0  0
  -28.1282   -8.9645   -7.2121 C   0  0  0  0  0  0  0  0  0  0  0  0
  -27.4343  -10.0347   -7.6251 F   0  0  0  0  0  0  0  0  0  0  0  0
  -28.1769   -8.6232   -5.8656 C   0  0  0  0  0  0  0  0  0  0  0  0
  -27.2501   -9.6411   -4.5700 Br  0  0  0  0  0  0  0  0  0  0  0  0
  -28.9145   -7.5127   -5.4601 C   0  0  0  0  0  0  0  0  0  0  0  0
  -27.5219   -1.2121   -8.4210 C   0  0  0  0  0  0  0  0  0  0  0  0
  -27.8852   -1.8639   -9.7643 C   0  0  0  0  0  0  0  0  0  0  0  0
  -26.8656   -1.7109  -10.8650 C   0  0  0  0  0  0  0  0  0  0  0  0
  -27.3080   -1.7024  -12.1885 C   0  0  0  0  0  0  0  0  0  0  0  0
  -26.3745   -1.5727  -13.2110 C   0  0  0  0  0  0  0  0  0  0  0  0
  -25.0293   -1.4568  -12.8889 C   0  0  0  0  0  0  0  0  0  0  0  0
  -24.6732   -1.4761  -11.5504 C   0  0  0  0  0  0  0  0  0  0  0  0
  -25.5575   -1.6017  -10.5367 N   0  0  0  0  0  0  0  0  0  0  0  0
  1  2  1  0  0  0
  1 11  1  0  0  0
  1 12  1  0  0  0
  2  3  1  0  0  0
  2 10  2  0  0  0
  3  4  2  0  0  0
  4 14  1  0  0  0
  4  5  1  0  0  0
 14 16  1  0  0  0
 14 15  1  0  0  0
 16 17  1  0  0  0
 16 23  2  0  0  0
 17 18  2  0  0  0
 18 19  1  0  0  0
 19 20  1  0  0  0
 19 21  2  0  0  0
 21 22  1  0  0  0
 21 23  1  0  0  0
  5  6  1  0  0  0
  5  9  2  0  0  0
  6  7  2  0  0  0
  7 24  1  0  0  0
  7  8  1  0  0  0
 24 25  1  0  0  0
 25 26  1  0  0  0
 26 27  1  0  0  0
 26 31  2  0  0  0
 27 28  2  0  0  0
 28 29  1  0  0  0
 29 30  2  0  0  0
 30 31  1  0  0  0
  8  9  1  0  0  0
  8 13  1  0  0  0
  9 10  1  0  0  0
M  END
> <minimizedAffinity>
-9.07467

$$$$
