CHEMBL3961406


 39 42  0  0  0  0  0  0  0  0999 V2000
  -29.7688   -5.9338   -5.9805 C   0  0  0  0  0  0  0  0  0  0  0  0
  -29.5408   -4.7874   -6.7530 C   0  0  0  0  0  0  0  0  0  0  0  0
  -28.6467   -3.7772   -6.3693 C   0  0  0  0  0  0  0  0  0  0  0  0
  -28.0488   -3.8837   -5.1171 C   0  0  0  0  0  0  0  0  0  0  0  0
  -28.2903   -5.0102   -4.3164 C   0  0  0  0  0  0  0  0  0  0  0  0
  -29.0923   -6.0854   -4.7676 C   0  0  0  0  0  0  0  0  0  0  0  0
  -28.3565   -2.6696   -7.2111 N   0  0  0  0  0  0  0  0  0  0  0  0
  -27.7926   -2.7821   -8.4781 C   0  0  0  0  0  0  0  0  0  0  0  0
  -27.4578   -3.8432   -8.9983 O   0  0  0  0  0  0  0  0  0  0  0  0
  -27.5817   -1.5710   -9.1099 N   0  0  0  0  0  0  0  0  0  0  0  0
  -28.5008   -1.7417   -6.8322 H   0  0  0  0  0  0  0  0  0  0  0  0
  -27.2665   -0.8324   -8.4985 H   0  0  0  0  0  0  0  0  0  0  0  0
  -27.0118   -1.5760  -10.4170 C   0  0  0  0  0  0  0  0  0  0  0  0
  -27.8502   -1.5652  -11.5260 C   0  0  0  0  0  0  0  0  0  0  0  0
  -27.3009   -1.5519  -12.8110 C   0  0  0  0  0  0  0  0  0  0  0  0
  -25.9133   -1.5894  -13.0058 C   0  0  0  0  0  0  0  0  0  0  0  0
  -25.3778   -1.6299  -14.6461 Cl  0  0  0  0  0  0  0  0  0  0  0  0
  -25.0476   -1.6038  -11.9076 C   0  0  0  0  0  0  0  0  0  0  0  0
  -25.6203   -1.5771  -10.6102 C   0  0  0  0  0  0  0  0  0  0  0  0
  -23.5430   -1.6575  -12.0182 C   0  0  0  0  0  0  0  0  0  0  0  0
  -23.0319   -2.5843  -12.8718 F   0  0  0  0  0  0  0  0  0  0  0  0
  -23.0093   -0.4683  -12.4159 F   0  0  0  0  0  0  0  0  0  0  0  0
  -22.9606   -1.9320  -10.8130 F   0  0  0  0  0  0  0  0  0  0  0  0
  -31.4227   -7.7195   -6.8866 N   0  0  0  0  0  0  0  0  0  0  0  0
  -30.7244   -6.8758   -6.5192 C   0  0  0  0  0  0  0  0  0  0  0  0
  -29.2273   -7.2399   -4.0155 O   0  0  0  0  0  0  0  0  0  0  0  0
  -28.5354   -8.3860   -4.4023 C   0  0  0  0  0  0  0  0  0  0  0  0
  -29.1685   -9.6123   -4.6071 C   0  0  0  0  0  0  0  0  0  0  0  0
  -28.4047  -10.6776   -5.0231 C   0  0  0  0  0  0  0  0  0  0  0  0
  -27.0788  -10.6032   -5.2036 N   0  0  0  0  0  0  0  0  0  0  0  0
  -26.4434   -9.4454   -4.9591 C   0  0  0  0  0  0  0  0  0  0  0  0
  -27.1400   -8.3039   -4.5577 C   0  0  0  0  0  0  0  0  0  0  0  0
  -25.0418   -9.4074   -5.1154 N   0  0  0  0  0  0  0  0  0  0  0  0
  -24.3850   -9.9936   -6.1874 C   0  0  0  0  0  0  0  0  0  0  0  0
  -24.8854  -10.5865   -7.1331 O   0  0  0  0  0  0  0  0  0  0  0  0
  -24.4999   -8.9512   -4.3996 H   0  0  0  0  0  0  0  0  0  0  0  0
  -22.8887   -9.8705   -6.1529 C   0  0  0  0  0  0  0  0  0  0  0  0
  -22.0563  -10.7933   -7.0236 C   0  0  0  0  0  0  0  0  0  0  0  0
  -22.0721  -10.9918   -5.5372 C   0  0  0  0  0  0  0  0  0  0  0  0
 24 25  3  0  0  0
 25  1  1  0  0  0
  1  2  1  0  0  0
  1  6  2  0  0  0
  2  3  2  0  0  0
  3  7  1  0  0  0
  3  4  1  0  0  0
  7  8  1  0  0  0
  7 11  1  0  0  0
  8  9  2  0  0  0
  8 10  1  0  0  0
 10 13  1  0  0  0
 10 12  1  0  0  0
 13 14  1  0  0  0
 13 19  2  0  0  0
 14 15  2  0  0  0
 15 16  1  0  0  0
 16 17  1  0  0  0
 16 18  2  0  0  0
 18 20  1  0  0  0
 18 19  1  0  0  0
 20 21  1  0  0  0
 20 22  1  0  0  0
 20 23  1  0  0  0
  4  5  2  0  0  0
  5  6  1  0  0  0
  6 26  1  0  0  0
 26 27  1  0  0  0
 27 28  1  0  0  0
 27 32  2  0  0  0
 28 29  2  0  0  0
 29 30  1  0  0  0
 30 31  2  0  0  0
 31 33  1  0  0  0
 31 32  1  0  0  0
 33 34  1  0  0  0
 33 36  1  0  0  0
 34 35  2  0  0  0
 34 37  1  0  0  0
 37 38  1  0  0  0
 37 39  1  0  0  0
 38 39  1  0  0  0
M  END
> <minimizedAffinity>
-9.84873

$$$$
