CHEMBL3656066


 51 54  0  0  0  0  0  0  0  0999 V2000
  -21.6247    0.9627  -14.4703 C   0  0  0  0  0  0  0  0  0  0  0  0
  -22.3179    2.1461  -14.2501 C   0  0  0  0  0  0  0  0  0  0  0  0
  -21.6029    3.3293  -14.2254 C   0  0  0  0  0  0  0  0  0  0  0  0
  -20.2776    3.4052  -14.4653 N   0  0  0  0  0  0  0  0  0  0  0  0
  -19.6372    2.2459  -14.7451 C   0  0  0  0  0  0  0  0  0  0  0  0
  -20.2640    1.0094  -14.7517 C   0  0  0  0  0  0  0  0  0  0  0  0
  -18.2322    2.4203  -15.0990 C   0  0  0  0  0  0  0  0  0  0  0  0
  -17.1719    1.5346  -15.1629 C   0  0  0  0  0  0  0  0  0  0  0  0
  -16.0304    2.2228  -15.6773 C   0  0  0  0  0  0  0  0  0  0  0  0
  -16.4318    3.5361  -15.8549 C   0  0  0  0  0  0  0  0  0  0  0  0
  -17.7487    3.6409  -15.5081 N   0  0  0  0  0  0  0  0  0  0  0  0
  -18.3221    4.4740  -15.5596 H   0  0  0  0  0  0  0  0  0  0  0  0
  -14.6985    1.7305  -15.9993 C   0  0  0  0  0  0  0  0  0  0  0  0
  -13.8087    2.4621  -16.4181 O   0  0  0  0  0  0  0  0  0  0  0  0
  -14.5136    0.3821  -15.8006 N   0  0  0  0  0  0  0  0  0  0  0  0
  -15.2762   -0.1918  -15.4657 H   0  0  0  0  0  0  0  0  0  0  0  0
  -13.2479   -0.2717  -16.1059 C   0  0  0  0  0  0  0  0  0  0  0  0
  -13.4054   -0.9408  -17.4747 C   0  0  0  0  0  0  0  0  0  0  0  0
  -13.3994   -0.3281  -18.5390 O   0  0  0  0  0  0  0  0  0  0  0  0
  -13.5172   -2.2917  -17.4251 O   0  0  0  0  0  0  0  0  0  0  0  0
  -13.5333   -2.6595  -16.5148 H   0  0  0  0  0  0  0  0  0  0  0  0
  -12.8777   -1.3105  -15.0291 C   0  0  0  0  0  0  0  0  0  0  0  0
  -13.9125   -1.5102  -13.9240 C   0  0  0  0  0  0  0  0  0  0  0  0
  -14.6055   -2.8401  -14.0516 C   0  0  0  0  0  0  0  0  0  0  0  0
  -14.2221   -3.6929  -14.8456 O   0  0  0  0  0  0  0  0  0  0  0  0
  -15.6662   -2.9323  -13.2085 O   0  0  0  0  0  0  0  0  0  0  0  0
  -15.5124   -3.5971  -11.9261 C   0  0  0  0  0  0  0  0  0  0  0  0
  -15.8210   -2.6278  -10.7794 C   0  0  0  0  0  0  0  0  0  0  0  0
  -16.5500   -4.7330  -11.9001 C   0  0  0  0  0  0  0  0  0  0  0  0
  -14.1219   -4.2314  -11.7998 C   0  0  0  0  0  0  0  0  0  0  0  0
  -22.2051   -0.2880  -14.4875 O   0  0  0  0  0  0  0  0  0  0  0  0
  -25.7102   -0.8657  -12.2753 C   0  0  0  0  0  0  0  0  0  0  0  0
  -24.5930   -0.2277  -11.7234 C   0  0  0  0  0  0  0  0  0  0  0  0
  -23.4344   -0.0494  -12.4877 C   0  0  0  0  0  0  0  0  0  0  0  0
  -23.3863   -0.4976  -13.8091 C   0  0  0  0  0  0  0  0  0  0  0  0
  -24.5247   -1.0718  -14.3839 C   0  0  0  0  0  0  0  0  0  0  0  0
  -25.6525   -1.2932  -13.6017 C   0  0  0  0  0  0  0  0  0  0  0  0
  -26.7237   -1.8796  -14.1586 F   0  0  0  0  0  0  0  0  0  0  0  0
  -28.1460   -1.8229   -9.7569 N   0  0  0  0  0  0  0  0  0  0  0  0
  -26.9049   -1.7745  -10.3637 C   0  0  0  0  0  0  0  0  0  0  0  0
  -25.8765   -2.2741   -9.9118 O   0  0  0  0  0  0  0  0  0  0  0  0
  -26.9160   -1.0547  -11.5497 N   0  0  0  0  0  0  0  0  0  0  0  0
  -28.9474   -1.5818  -10.3309 H   0  0  0  0  0  0  0  0  0  0  0  0
  -27.5417   -0.2581  -11.5500 H   0  0  0  0  0  0  0  0  0  0  0  0
  -27.8153   -1.3625   -4.8137 C   0  0  0  0  0  0  0  0  0  0  0  0
  -28.2497   -2.1240   -6.0324 C   0  0  0  0  0  0  0  0  0  0  0  0
  -28.9158   -3.3436   -5.8767 C   0  0  0  0  0  0  0  0  0  0  0  0
  -29.3245   -4.0594   -6.9922 C   0  0  0  0  0  0  0  0  0  0  0  0
  -29.0727   -3.5677   -8.2699 C   0  0  0  0  0  0  0  0  0  0  0  0
  -28.4176   -2.3443   -8.4647 C   0  0  0  0  0  0  0  0  0  0  0  0
  -28.0044   -1.6303   -7.3299 C   0  0  0  0  0  0  0  0  0  0  0  0
 45 46  1  0  0  0
 46 47  1  0  0  0
 46 51  2  0  0  0
 47 48  2  0  0  0
 48 49  1  0  0  0
 49 50  2  0  0  0
 50 39  1  0  0  0
 50 51  1  0  0  0
 39 40  1  0  0  0
 39 43  1  0  0  0
 40 41  2  0  0  0
 40 42  1  0  0  0
 42 32  1  0  0  0
 42 44  1  0  0  0
 32 33  1  0  0  0
 32 37  2  0  0  0
 33 34  2  0  0  0
 34 35  1  0  0  0
 35 31  1  0  0  0
 35 36  2  0  0  0
 31  1  1  0  0  0
  1  2  1  0  0  0
  1  6  2  0  0  0
  2  3  2  0  0  0
  3  4  1  0  0  0
  4  5  2  0  0  0
  5  7  1  0  0  0
  5  6  1  0  0  0
  7  8  2  0  0  0
  7 11  1  0  0  0
  8  9  1  0  0  0
  9 13  1  0  0  0
  9 10  2  0  0  0
 13 14  2  0  0  0
 13 15  1  0  0  0
 15 17  1  0  0  0
 15 16  1  0  0  0
 17 22  1  0  0  0
 17 18  1  0  0  0
 22 23  1  0  0  0
 23 24  1  0  0  0
 24 25  2  0  0  0
 24 26  1  0  0  0
 26 27  1  0  0  0
 27 28  1  0  0  0
 27 29  1  0  0  0
 27 30  1  0  0  0
 18 19  2  0  0  0
 18 20  1  0  0  0
 20 21  1  0  0  0
 10 11  1  0  0  0
 11 12  1  0  0  0
 36 37  1  0  0  0
 37 38  1  0  0  0
M  END
> <minimizedAffinity>
-10.82474

$$$$
