CHEMBL1945497


 37 40  0  0  0  0  0  0  0  0999 V2000
  -17.4363    0.5599  -15.2728 N   0  0  0  0  0  0  0  0  0  0  0  0
  -16.8629    0.9450  -16.0175 H   0  0  0  0  0  0  0  0  0  0  0  0
  -16.5697   -0.0135  -14.3087 C   0  0  0  0  0  0  0  0  0  0  0  0
  -15.6069    0.7636  -13.7804 N   0  0  0  0  0  0  0  0  0  0  0  0
  -14.5019    0.1811  -13.3215 C   0  0  0  0  0  0  0  0  0  0  0  0
  -14.3635   -1.1752  -13.3112 C   0  0  0  0  0  0  0  0  0  0  0  0
  -15.5151   -1.9042  -13.5368 C   0  0  0  0  0  0  0  0  0  0  0  0
  -16.6114   -1.3480  -14.0993 N   0  0  0  0  0  0  0  0  0  0  0  0
  -15.4356   -3.3734  -13.3928 C   0  0  0  0  0  0  0  0  0  0  0  0
  -15.9519   -4.0283  -12.2572 C   0  0  0  0  0  0  0  0  0  0  0  0
  -15.7598   -5.4049  -12.0833 C   0  0  0  0  0  0  0  0  0  0  0  0
  -15.1404   -6.1538  -13.0827 C   0  0  0  0  0  0  0  0  0  0  0  0
  -14.9051   -7.8454  -12.8695 Cl  0  0  0  0  0  0  0  0  0  0  0  0
  -14.6230   -5.5288  -14.2135 C   0  0  0  0  0  0  0  0  0  0  0  0
  -14.6648   -4.1367  -14.2938 C   0  0  0  0  0  0  0  0  0  0  0  0
  -13.7591   -3.5216  -15.1835 N   0  0  0  0  0  0  0  0  0  0  0  0
  -12.9445   -2.4578  -14.8479 C   0  0  0  0  0  0  0  0  0  0  0  0
  -11.8564   -1.8778  -15.9803 S   0  0  0  0  0  0  0  0  0  0  0  0
  -13.0301   -1.8453  -13.4323 C   0  0  0  0  0  0  0  0  0  0  0  0
  -13.5006   -4.0174  -16.0319 H   0  0  0  0  0  0  0  0  0  0  0  0
  -21.0035    1.4040  -14.5115 C   0  0  0  0  0  0  0  0  0  0  0  0
  -20.8967    2.7386  -14.1279 C   0  0  0  0  0  0  0  0  0  0  0  0
  -19.6662    3.3934  -14.2095 C   0  0  0  0  0  0  0  0  0  0  0  0
  -18.5247    2.7241  -14.6887 C   0  0  0  0  0  0  0  0  0  0  0  0
  -18.5907    1.3448  -14.9701 C   0  0  0  0  0  0  0  0  0  0  0  0
  -19.8564    0.7384  -14.9534 C   0  0  0  0  0  0  0  0  0  0  0  0
  -22.3073    0.6544  -14.4006 C   0  0  0  0  0  0  0  0  0  0  0  0
  -22.4933   -0.0175  -13.0318 C   0  0  0  0  0  0  0  0  0  0  0  0
  -23.8589    0.2417  -12.3774 C   0  0  0  0  0  0  0  0  0  0  0  0
  -25.8197   -1.1997  -12.2405 C   0  0  0  0  0  0  0  0  0  0  0  0
  -24.4638   -0.9506  -11.7536 N   0  0  0  0  0  0  0  0  0  0  0  0
  -23.6170   -2.1232  -12.0077 C   0  0  0  0  0  0  0  0  0  0  0  0
  -17.3065    3.3305  -14.8309 O   0  0  0  0  0  0  0  0  0  0  0  0
  -16.9058    3.6954  -16.1512 C   0  0  0  0  0  0  0  0  0  0  0  0
  -17.8326    3.4547  -17.1042 F   0  0  0  0  0  0  0  0  0  0  0  0
  -16.5837    5.0077  -16.1815 F   0  0  0  0  0  0  0  0  0  0  0  0
  -15.8012    2.9864  -16.4754 F   0  0  0  0  0  0  0  0  0  0  0  0
 30 31  1  0  0  0
 31 32  1  0  0  0
 31 29  1  0  0  0
 29 28  1  0  0  0
 28 27  1  0  0  0
 27 21  1  0  0  0
 21 22  1  0  0  0
 21 26  2  0  0  0
 22 23  2  0  0  0
 23 24  1  0  0  0
 24 33  1  0  0  0
 24 25  2  0  0  0
 33 34  1  0  0  0
 34 35  1  0  0  0
 34 36  1  0  0  0
 34 37  1  0  0  0
 25  1  1  0  0  0
 25 26  1  0  0  0
  1  3  1  0  0  0
  1  2  1  0  0  0
  3  4  1  0  0  0
  3  8  2  0  0  0
  4  5  2  0  0  0
  5  6  1  0  0  0
  6  7  2  0  0  0
  6 19  1  0  0  0
  7  8  1  0  0  0
  7  9  1  0  0  0
  9 10  1  0  0  0
  9 15  2  0  0  0
 10 11  2  0  0  0
 11 12  1  0  0  0
 12 13  1  0  0  0
 12 14  2  0  0  0
 14 15  1  0  0  0
 15 16  1  0  0  0
 16 17  1  0  0  0
 16 20  1  0  0  0
 17 18  2  0  0  0
 17 19  1  0  0  0
M  END
> <minimizedAffinity>
-9.08857

$$$$
