CHEMBL1975128


 26 29  0  0  0  0  0  0  0  0999 V2000
  -27.6090   -2.7851   -4.8662 N   0  0  0  0  0  0  0  0  0  0  0  0
  -28.7415   -3.0571   -4.2068 C   0  0  0  0  0  0  0  0  0  0  0  0
  -29.1838   -2.2917   -3.2110 N   0  0  0  0  0  0  0  0  0  0  0  0
  -30.3189   -2.8924   -2.8286 N   0  0  0  0  0  0  0  0  0  0  0  0
  -30.6217   -4.0254   -3.5349 C   0  0  0  0  0  0  0  0  0  0  0  0
  -31.6835   -4.9215   -3.4309 C   0  0  0  0  0  0  0  0  0  0  0  0
  -31.6764   -6.0211   -4.3001 C   0  0  0  0  0  0  0  0  0  0  0  0
  -30.6806   -6.2119   -5.2658 C   0  0  0  0  0  0  0  0  0  0  0  0
  -29.6212   -5.2766   -5.3369 C   0  0  0  0  0  0  0  0  0  0  0  0
  -29.5935   -4.1699   -4.4564 C   0  0  0  0  0  0  0  0  0  0  0  0
  -26.9924   -2.0938   -4.4466 H   0  0  0  0  0  0  0  0  0  0  0  0
  -27.1247   -3.5147   -5.3782 H   0  0  0  0  0  0  0  0  0  0  0  0
  -30.8437   -2.4834   -2.0653 H   0  0  0  0  0  0  0  0  0  0  0  0
  -30.6586   -7.3821   -6.1433 C   0  0  0  0  0  0  0  0  0  0  0  0
  -31.6545   -7.5771   -7.0781 N   0  0  0  0  0  0  0  0  0  0  0  0
  -31.3996   -8.6877   -7.7524 N   0  0  0  0  0  0  0  0  0  0  0  0
  -30.2435   -9.1957   -7.2794 N   0  0  0  0  0  0  0  0  0  0  0  0
  -29.7694   -8.4431   -6.2327 C   0  0  0  0  0  0  0  0  0  0  0  0
  -28.1446   -8.9128   -5.0690 I   0  0  0  0  0  0  0  0  0  0  0  0
  -29.7467  -10.4524   -7.8217 C   0  0  0  0  0  0  0  0  0  0  0  0
  -28.9154  -10.2662   -9.0707 C   0  0  0  0  0  0  0  0  0  0  0  0
  -29.4589  -10.5314  -10.3370 C   0  0  0  0  0  0  0  0  0  0  0  0
  -28.6968  -10.3441  -11.4943 C   0  0  0  0  0  0  0  0  0  0  0  0
  -27.3856   -9.8815  -11.4008 C   0  0  0  0  0  0  0  0  0  0  0  0
  -26.8395   -9.5964  -10.1515 C   0  0  0  0  0  0  0  0  0  0  0  0
  -27.5988   -9.7832   -8.9944 C   0  0  0  0  0  0  0  0  0  0  0  0
  1  2  1  0  0  0
  1 11  1  0  0  0
  1 12  1  0  0  0
  2  3  2  0  0  0
  2 10  1  0  0  0
  3  4  1  0  0  0
  4  5  1  0  0  0
  4 13  1  0  0  0
  5  6  1  0  0  0
  5 10  2  0  0  0
  6  7  2  0  0  0
  7  8  1  0  0  0
  8 14  1  0  0  0
  8  9  2  0  0  0
 14 15  1  0  0  0
 14 18  2  0  0  0
 15 16  2  0  0  0
 16 17  1  0  0  0
 17 20  1  0  0  0
 17 18  1  0  0  0
 20 21  1  0  0  0
 21 22  1  0  0  0
 21 26  2  0  0  0
 22 23  2  0  0  0
 23 24  1  0  0  0
 24 25  2  0  0  0
 25 26  1  0  0  0
 18 19  1  0  0  0
  9 10  1  0  0  0
M  END
> <minimizedAffinity>
-7.85282

$$$$
