CHEMBL203642


 35 40  0  0  0  0  0  0  0  0999 V2000
  -29.4105   -3.2353   -3.6243 C   0  0  0  0  0  0  0  0  0  0  0  0
  -30.2276   -4.3201   -3.8374 C   0  0  0  0  0  0  0  0  0  0  0  0
  -30.3697   -4.9252   -5.0366 N   0  0  0  0  0  0  0  0  0  0  0  0
  -29.7149   -4.4277   -6.1180 C   0  0  0  0  0  0  0  0  0  0  0  0
  -28.9118   -3.2800   -6.0066 C   0  0  0  0  0  0  0  0  0  0  0  0
  -28.7406   -2.7199   -4.7224 C   0  0  0  0  0  0  0  0  0  0  0  0
  -28.2353   -2.6062   -7.1059 C   0  0  0  0  0  0  0  0  0  0  0  0
  -27.5103   -1.5051   -7.0586 N   0  0  0  0  0  0  0  0  0  0  0  0
  -27.2259   -1.1740   -8.3565 N   0  0  0  0  0  0  0  0  0  0  0  0
  -27.7853   -2.0873   -9.1212 C   0  0  0  0  0  0  0  0  0  0  0  0
  -28.4016   -3.0674   -8.3850 O   0  0  0  0  0  0  0  0  0  0  0  0
  -27.9124   -2.1921  -10.4587 N   0  0  0  0  0  0  0  0  0  0  0  0
  -28.8548   -2.1346  -10.8219 H   0  0  0  0  0  0  0  0  0  0  0  0
  -26.9059   -1.8735  -11.3965 C   0  0  0  0  0  0  0  0  0  0  0  0
  -27.2253   -1.8805  -12.7652 C   0  0  0  0  0  0  0  0  0  0  0  0
  -26.2788   -1.5202  -13.7327 C   0  0  0  0  0  0  0  0  0  0  0  0
  -24.9898   -1.1682  -13.3464 C   0  0  0  0  0  0  0  0  0  0  0  0
  -24.6521   -1.1613  -11.9941 C   0  0  0  0  0  0  0  0  0  0  0  0
  -25.5957   -1.5278  -11.0340 C   0  0  0  0  0  0  0  0  0  0  0  0
  -23.4109   -0.8114  -11.5270 O   0  0  0  0  0  0  0  0  0  0  0  0
  -22.6466   -0.1320  -12.5267 C   0  0  0  0  0  0  0  0  0  0  0  0
  -22.7573   -0.8461  -13.8636 C   0  0  0  0  0  0  0  0  0  0  0  0
  -24.1084   -0.8345  -14.3414 O   0  0  0  0  0  0  0  0  0  0  0  0
  -29.9598   -5.0593   -7.3528 N   0  0  0  0  0  0  0  0  0  0  0  0
  -29.8095   -4.4260   -8.1323 H   0  0  0  0  0  0  0  0  0  0  0  0
  -29.1864   -6.2977   -7.5262 C   0  0  0  0  0  0  0  0  0  0  0  0
  -30.1004   -7.4985   -7.5685 C   0  0  0  0  0  0  0  0  0  0  0  0
  -31.4413   -7.4220   -7.1297 C   0  0  0  0  0  0  0  0  0  0  0  0
  -32.3117   -8.5132   -7.2637 C   0  0  0  0  0  0  0  0  0  0  0  0
  -31.8168   -9.6639   -7.8369 C   0  0  0  0  0  0  0  0  0  0  0  0
  -30.5120   -9.7521   -8.2600 C   0  0  0  0  0  0  0  0  0  0  0  0
  -29.6334   -8.6985   -8.1429 C   0  0  0  0  0  0  0  0  0  0  0  0
  -30.2217  -10.9682   -8.8071 O   0  0  0  0  0  0  0  0  0  0  0  0
  -31.4868  -11.6406   -8.6459 C   0  0  0  0  0  0  0  0  0  0  0  0
  -32.5126  -10.8061   -8.0644 O   0  0  0  0  0  0  0  0  0  0  0  0
  1  2  1  0  0  0
  1  6  2  0  0  0
  2  3  2  0  0  0
  3  4  1  0  0  0
  4 24  1  0  0  0
  4  5  2  0  0  0
 24 26  1  0  0  0
 24 25  1  0  0  0
 26 27  1  0  0  0
 27 28  1  0  0  0
 27 32  2  0  0  0
 28 29  2  0  0  0
 29 30  1  0  0  0
 30 31  2  0  0  0
 30 35  1  0  0  0
 31 32  1  0  0  0
 31 33  1  0  0  0
 33 34  1  0  0  0
 34 35  1  0  0  0
  5  7  1  0  0  0
  5  6  1  0  0  0
  7  8  2  0  0  0
  7 11  1  0  0  0
  8  9  1  0  0  0
  9 10  2  0  0  0
 10 12  1  0  0  0
 10 11  1  0  0  0
 12 14  1  0  0  0
 12 13  1  0  0  0
 14 15  1  0  0  0
 14 19  2  0  0  0
 15 16  2  0  0  0
 16 17  1  0  0  0
 17 18  2  0  0  0
 17 23  1  0  0  0
 18 19  1  0  0  0
 18 20  1  0  0  0
 20 21  1  0  0  0
 21 22  1  0  0  0
 22 23  1  0  0  0
M  END
> <minimizedAffinity>
-10.96374

$$$$
