CHEMBL3937516


 36 39  0  0  0  0  0  0  0  0999 V2000
  -28.0615   -1.1578   -6.6292 C   0  0  0  0  0  0  0  0  0  0  0  0
  -28.3086   -1.7293   -5.3744 C   0  0  0  0  0  0  0  0  0  0  0  0
  -28.4707   -3.0866   -5.2074 C   0  0  0  0  0  0  0  0  0  0  0  0
  -28.5490   -3.5514   -3.9631 N   0  0  0  0  0  0  0  0  0  0  0  0
  -28.6067   -4.8747   -3.8345 C   0  0  0  0  0  0  0  0  0  0  0  0
  -28.5881   -5.7577   -4.8357 N   0  0  0  0  0  0  0  0  0  0  0  0
  -28.5502   -5.2768   -6.0924 C   0  0  0  0  0  0  0  0  0  0  0  0
  -28.4992   -3.8992   -6.3449 C   0  0  0  0  0  0  0  0  0  0  0  0
  -28.4612   -3.3096   -7.6291 C   0  0  0  0  0  0  0  0  0  0  0  0
  -28.1951   -1.9509   -7.7799 C   0  0  0  0  0  0  0  0  0  0  0  0
  -28.7877    1.0980   -6.5127 C   0  0  0  0  0  0  0  0  0  0  0  0
  -27.7190    0.1658   -6.7242 O   0  0  0  0  0  0  0  0  0  0  0  0
  -28.5398   -6.1814   -7.1940 N   0  0  0  0  0  0  0  0  0  0  0  0
  -27.6001   -6.5241   -7.3386 H   0  0  0  0  0  0  0  0  0  0  0  0
  -29.5011   -7.1872   -7.4696 C   0  0  0  0  0  0  0  0  0  0  0  0
  -30.8559   -7.0110   -7.1518 C   0  0  0  0  0  0  0  0  0  0  0  0
  -31.8086   -8.0090   -7.3585 C   0  0  0  0  0  0  0  0  0  0  0  0
  -31.3486   -9.1791   -7.9449 C   0  0  0  0  0  0  0  0  0  0  0  0
  -32.1020  -10.2840   -8.1867 O   0  0  0  0  0  0  0  0  0  0  0  0
  -31.2817  -11.2015   -8.7598 C   0  0  0  0  0  0  0  0  0  0  0  0
  -30.0159  -10.6860   -8.9230 C   0  0  0  0  0  0  0  0  0  0  0  0
  -30.0399   -9.3802   -8.3668 C   0  0  0  0  0  0  0  0  0  0  0  0
  -29.0997   -8.3516   -8.1552 C   0  0  0  0  0  0  0  0  0  0  0  0
  -28.0935   -1.5603   -9.0960 O   0  0  0  0  0  0  0  0  0  0  0  0
  -27.0004   -2.1532   -9.7881 C   0  0  0  0  0  0  0  0  0  0  0  0
  -26.8225   -1.5623  -11.1865 C   0  0  0  0  0  0  0  0  0  0  0  0
  -25.3190   -1.5533  -11.4791 C   0  0  0  0  0  0  0  0  0  0  0  0
  -24.7672   -0.1876  -11.8566 C   0  0  0  0  0  0  0  0  0  0  0  0
  -23.2895   -0.3093  -12.2420 C   0  0  0  0  0  0  0  0  0  0  0  0
  -23.0783    0.0757  -13.7005 C   0  0  0  0  0  0  0  0  0  0  0  0
  -22.1995    1.2963  -13.8577 C   0  0  0  0  0  0  0  0  0  0  0  0
  -20.9728    1.2785  -13.9119 O   0  0  0  0  0  0  0  0  0  0  0  0
  -22.9192    2.4670  -13.9194 N   0  0  0  0  0  0  0  0  0  0  0  0
  -22.1629    3.6396  -14.1465 O   0  0  0  0  0  0  0  0  0  0  0  0
  -23.8966    2.4982  -14.1887 H   0  0  0  0  0  0  0  0  0  0  0  0
  -21.2407    3.3001  -14.1295 H   0  0  0  0  0  0  0  0  0  0  0  0
 11 12  1  0  0  0
 12  1  1  0  0  0
  1  2  1  0  0  0
  1 10  2  0  0  0
  2  3  2  0  0  0
  3  4  1  0  0  0
  3  8  1  0  0  0
  4  5  2  0  0  0
  5  6  1  0  0  0
  6  7  2  0  0  0
  7 13  1  0  0  0
  7  8  1  0  0  0
 13 15  1  0  0  0
 13 14  1  0  0  0
 15 16  1  0  0  0
 15 23  2  0  0  0
 16 17  2  0  0  0
 17 18  1  0  0  0
 18 19  1  0  0  0
 18 22  2  0  0  0
 19 20  1  0  0  0
 20 21  2  0  0  0
 21 22  1  0  0  0
 22 23  1  0  0  0
  8  9  2  0  0  0
  9 10  1  0  0  0
 10 24  1  0  0  0
 24 25  1  0  0  0
 25 26  1  0  0  0
 26 27  1  0  0  0
 27 28  1  0  0  0
 28 29  1  0  0  0
 29 30  1  0  0  0
 30 31  1  0  0  0
 31 32  2  0  0  0
 31 33  1  0  0  0
 33 34  1  0  0  0
 33 35  1  0  0  0
 34 36  1  0  0  0
M  END
> <minimizedAffinity>
-9.50861

$$$$
