CHEMBL3913496


 38 41  0  0  0  0  0  0  0  0999 V2000
  -27.8546   -8.8387   -5.6999 C   0  0  0  0  0  0  0  0  0  0  0  0
  -27.0259   -9.8487   -6.2252 C   0  0  0  0  0  0  0  0  0  0  0  0
  -26.9274  -10.0831   -7.6236 C   0  0  0  0  0  0  0  0  0  0  0  0
  -26.1994  -11.0859   -8.2817 C   0  0  0  0  0  0  0  0  0  0  0  0
  -26.1315  -11.1656   -9.6310 N   0  0  0  0  0  0  0  0  0  0  0  0
  -26.8294  -10.2830  -10.3369 C   0  0  0  0  0  0  0  0  0  0  0  0
  -27.6136   -9.3473   -9.8214 N   0  0  0  0  0  0  0  0  0  0  0  0
  -27.6449   -9.2730   -8.4907 C   0  0  0  0  0  0  0  0  0  0  0  0
  -28.4730   -8.3200   -7.9633 C   0  0  0  0  0  0  0  0  0  0  0  0
  -28.6009   -8.0511   -6.5827 C   0  0  0  0  0  0  0  0  0  0  0  0
  -27.3601   -9.8551   -3.5928 C   0  0  0  0  0  0  0  0  0  0  0  0
  -27.7400   -8.7119   -4.3453 O   0  0  0  0  0  0  0  0  0  0  0  0
  -25.5818  -12.1198   -7.5345 N   0  0  0  0  0  0  0  0  0  0  0  0
  -26.1748  -12.4145   -6.7636 H   0  0  0  0  0  0  0  0  0  0  0  0
  -24.2095  -12.0793   -7.1897 C   0  0  0  0  0  0  0  0  0  0  0  0
  -23.2218  -12.1959   -8.1835 C   0  0  0  0  0  0  0  0  0  0  0  0
  -21.8722  -12.0288   -7.8800 C   0  0  0  0  0  0  0  0  0  0  0  0
  -21.4893  -11.7639   -6.5673 C   0  0  0  0  0  0  0  0  0  0  0  0
  -22.4563  -11.6883   -5.5621 C   0  0  0  0  0  0  0  0  0  0  0  0
  -21.9627  -11.3570   -3.9463 Cl  0  0  0  0  0  0  0  0  0  0  0  0
  -23.8063  -11.8536   -5.8717 C   0  0  0  0  0  0  0  0  0  0  0  0
  -24.7449  -11.7568   -4.9144 F   0  0  0  0  0  0  0  0  0  0  0  0
  -29.4062   -7.0120   -6.1322 O   0  0  0  0  0  0  0  0  0  0  0  0
  -28.6943   -5.7655   -6.1098 C   0  0  0  0  0  0  0  0  0  0  0  0
  -29.3267   -4.5647   -5.4318 C   0  0  0  0  0  0  0  0  0  0  0  0
  -28.4416   -4.0381   -4.2956 C   0  0  0  0  0  0  0  0  0  0  0  0
  -28.9061   -2.6896   -3.9056 N   0  0  0  0  0  0  0  0  0  0  0  0
  -29.9775   -2.6397   -2.9006 C   0  0  0  0  0  0  0  0  0  0  0  0
  -30.9536   -3.8166   -2.9236 C   0  0  0  0  0  0  0  0  0  0  0  0
  -31.4464   -4.1546   -4.3202 C   0  0  0  0  0  0  0  0  0  0  0  0
  -30.5827   -5.0924   -4.9433 O   0  0  0  0  0  0  0  0  0  0  0  0
  -28.5512   -1.6334   -4.7314 C   0  0  0  0  0  0  0  0  0  0  0  0
  -27.2387   -1.6347   -5.0954 N   0  0  0  0  0  0  0  0  0  0  0  0
  -29.4308   -0.7492   -5.0771 N   0  0  0  0  0  0  0  0  0  0  0  0
  -26.8857   -2.5514   -5.3368 H   0  0  0  0  0  0  0  0  0  0  0  0
  -26.9732   -0.9566   -5.8030 H   0  0  0  0  0  0  0  0  0  0  0  0
  -29.0744    0.2735   -5.8537 C   0  0  0  0  0  0  0  0  0  0  0  0
  -28.7679    1.1346   -6.5701 N   0  0  0  0  0  0  0  0  0  0  0  0
 11 12  1  0  0  0
 12  1  1  0  0  0
  1  2  1  0  0  0
  1 10  2  0  0  0
  2  3  2  0  0  0
  3  4  1  0  0  0
  3  8  1  0  0  0
  4 13  1  0  0  0
  4  5  2  0  0  0
 13 15  1  0  0  0
 13 14  1  0  0  0
 15 16  1  0  0  0
 15 21  2  0  0  0
 16 17  2  0  0  0
 17 18  1  0  0  0
 18 19  2  0  0  0
 19 20  1  0  0  0
 19 21  1  0  0  0
 21 22  1  0  0  0
  5  6  1  0  0  0
  6  7  2  0  0  0
  7  8  1  0  0  0
  8  9  2  0  0  0
  9 10  1  0  0  0
 10 23  1  0  0  0
 23 24  1  0  0  0
 24 25  1  0  0  0
 25 26  1  0  0  0
 25 31  1  0  0  0
 26 27  1  0  0  0
 27 32  1  0  0  0
 27 28  1  0  0  0
 32 33  1  0  0  0
 32 34  2  0  0  0
 33 35  1  0  0  0
 33 36  1  0  0  0
 34 37  1  0  0  0
 37 38  3  0  0  0
 28 29  1  0  0  0
 29 30  1  0  0  0
 30 31  1  0  0  0
M  END
> <minimizedAffinity>
-8.14103

$$$$
