CHEMBL182468


 30 33  0  0  0  0  0  0  0  0999 V2000
  -28.0424   -2.3274   -8.4163 C   0  0  0  0  0  0  0  0  0  0  0  0
  -28.3424   -3.6905   -8.4681 C   0  0  0  0  0  0  0  0  0  0  0  0
  -28.7115   -4.3919   -7.3159 C   0  0  0  0  0  0  0  0  0  0  0  0
  -28.8235   -3.7395   -6.0852 C   0  0  0  0  0  0  0  0  0  0  0  0
  -28.4237   -2.3900   -6.0272 C   0  0  0  0  0  0  0  0  0  0  0  0
  -28.0217   -1.6947   -7.1747 C   0  0  0  0  0  0  0  0  0  0  0  0
  -29.5272   -4.3477   -4.9414 C   0  0  0  0  0  0  0  0  0  0  0  0
  -30.8876   -4.0778   -4.6779 C   0  0  0  0  0  0  0  0  0  0  0  0
  -31.6651   -4.9026   -3.8367 C   0  0  0  0  0  0  0  0  0  0  0  0
  -31.1263   -6.0688   -3.3077 C   0  0  0  0  0  0  0  0  0  0  0  0
  -29.7941   -6.3121   -3.5685 C   0  0  0  0  0  0  0  0  0  0  0  0
  -28.9688   -5.4297   -4.2659 C   0  0  0  0  0  0  0  0  0  0  0  0
  -27.5996   -6.0203   -4.3049 C   0  0  0  0  0  0  0  0  0  0  0  0
  -27.8681   -7.4226   -4.1521 N   0  0  0  0  0  0  0  0  0  0  0  0
  -29.1223   -7.6204   -3.6135 C   0  0  0  0  0  0  0  0  0  0  0  0
  -29.6746   -8.6929   -3.4346 O   0  0  0  0  0  0  0  0  0  0  0  0
  -27.6650   -8.0440   -4.9300 H   0  0  0  0  0  0  0  0  0  0  0  0
  -26.0461   -2.7873  -10.4372 O   0  0  0  0  0  0  0  0  0  0  0  0
  -26.7966   -1.8140  -10.4988 C   0  0  0  0  0  0  0  0  0  0  0  0
  -27.7904   -1.5492   -9.5686 N   0  0  0  0  0  0  0  0  0  0  0  0
  -26.7668   -0.8658  -11.5068 N   0  0  0  0  0  0  0  0  0  0  0  0
  -28.5417   -0.9456   -9.8750 H   0  0  0  0  0  0  0  0  0  0  0  0
  -27.3715   -0.0697  -11.3979 H   0  0  0  0  0  0  0  0  0  0  0  0
  -25.9145   -0.8684  -12.6364 C   0  0  0  0  0  0  0  0  0  0  0  0
  -26.2563   -1.3906  -13.8806 C   0  0  0  0  0  0  0  0  0  0  0  0
  -25.3688   -1.3537  -14.9596 C   0  0  0  0  0  0  0  0  0  0  0  0
  -24.1148   -0.7746  -14.7977 C   0  0  0  0  0  0  0  0  0  0  0  0
  -23.7626   -0.2440  -13.5596 C   0  0  0  0  0  0  0  0  0  0  0  0
  -22.2106    0.4804  -13.3588 Cl  0  0  0  0  0  0  0  0  0  0  0  0
  -24.6450   -0.2895  -12.4819 C   0  0  0  0  0  0  0  0  0  0  0  0
 18 19  2  0  0  0
 19 20  1  0  0  0
 19 21  1  0  0  0
 20  1  1  0  0  0
 20 22  1  0  0  0
  1  2  1  0  0  0
  1  6  2  0  0  0
  2  3  2  0  0  0
  3  4  1  0  0  0
  4  7  1  0  0  0
  4  5  2  0  0  0
  7  8  1  0  0  0
  7 12  2  0  0  0
  8  9  2  0  0  0
  9 10  1  0  0  0
 10 11  2  0  0  0
 11 12  1  0  0  0
 11 15  1  0  0  0
 12 13  1  0  0  0
 13 14  1  0  0  0
 14 15  1  0  0  0
 14 17  1  0  0  0
 15 16  2  0  0  0
  5  6  1  0  0  0
 21 24  1  0  0  0
 21 23  1  0  0  0
 24 25  1  0  0  0
 24 30  2  0  0  0
 25 26  2  0  0  0
 26 27  1  0  0  0
 27 28  2  0  0  0
 28 29  1  0  0  0
 28 30  1  0  0  0
M  END
> <minimizedAffinity>
-9.44880

$$$$
