CHEMBL234699


 24 25  0  0  0  0  0  0  0  0999 V2000
  -28.2962   -1.4530   -6.8324 C   0  0  0  0  0  0  0  0  0  0  0  0
  -28.2446   -1.1454   -8.1557 N   0  0  0  0  0  0  0  0  0  0  0  0
  -28.0359   -2.0868   -9.0951 C   0  0  0  0  0  0  0  0  0  0  0  0
  -27.8675   -3.3708   -8.7872 N   0  0  0  0  0  0  0  0  0  0  0  0
  -27.9286   -3.6817   -7.4744 C   0  0  0  0  0  0  0  0  0  0  0  0
  -28.1313   -2.7688   -6.4479 C   0  0  0  0  0  0  0  0  0  0  0  0
  -29.9405   -0.3808   -5.2772 C   0  0  0  0  0  0  0  0  0  0  0  0
  -28.5539   -0.2244   -5.9463 C   0  0  0  0  0  0  0  0  0  0  0  0
  -28.5888    1.0419   -6.8373 C   0  0  0  0  0  0  0  0  0  0  0  0
  -27.5434    0.0510   -4.8201 C   0  0  0  0  0  0  0  0  0  0  0  0
  -27.9427   -1.7298  -10.4393 N   0  0  0  0  0  0  0  0  0  0  0  0
  -28.8550   -1.6701  -10.8635 H   0  0  0  0  0  0  0  0  0  0  0  0
  -26.8131   -1.6612  -11.2644 C   0  0  0  0  0  0  0  0  0  0  0  0
  -25.5615   -1.3392  -10.7266 C   0  0  0  0  0  0  0  0  0  0  0  0
  -24.4549   -1.1157  -11.5609 C   0  0  0  0  0  0  0  0  0  0  0  0
  -24.5854   -1.1981  -12.9519 C   0  0  0  0  0  0  0  0  0  0  0  0
  -25.8188   -1.5659  -13.4893 C   0  0  0  0  0  0  0  0  0  0  0  0
  -26.9045   -1.8051  -12.6528 C   0  0  0  0  0  0  0  0  0  0  0  0
  -23.4386   -0.8992  -13.8844 C   0  0  0  0  0  0  0  0  0  0  0  0
  -22.4594    0.1311  -13.3258 C   0  0  0  0  0  0  0  0  0  0  0  0
  -21.4990    0.5313  -14.2990 O   0  0  0  0  0  0  0  0  0  0  0  0
  -20.9311   -0.2417  -14.4675 H   0  0  0  0  0  0  0  0  0  0  0  0
  -28.1449   -3.2739   -5.1187 C   0  0  0  0  0  0  0  0  0  0  0  0
  -28.1335   -3.6475   -4.0204 N   0  0  0  0  0  0  0  0  0  0  0  0
  7  8  1  0  0  0
  8  9  1  0  0  0
  8 10  1  0  0  0
  8  1  1  0  0  0
  1  2  1  0  0  0
  1  6  2  0  0  0
  2  3  2  0  0  0
  3 11  1  0  0  0
  3  4  1  0  0  0
 11 13  1  0  0  0
 11 12  1  0  0  0
 13 14  1  0  0  0
 13 18  2  0  0  0
 14 15  2  0  0  0
 15 16  1  0  0  0
 16 19  1  0  0  0
 16 17  2  0  0  0
 19 20  1  0  0  0
 20 21  1  0  0  0
 21 22  1  0  0  0
 17 18  1  0  0  0
  4  5  2  0  0  0
  5  6  1  0  0  0
  6 23  1  0  0  0
 23 24  3  0  0  0
M  END
> <minimizedAffinity>
-7.59209

$$$$
