CHEMBL4291146


 27 30  0  0  0  0  0  0  0  0999 V2000
  -27.9362   -1.5644   -8.3770 C   0  0  0  0  0  0  0  0  0  0  0  0
  -28.1047   -0.3545   -7.9279 N   0  0  0  0  0  0  0  0  0  0  0  0
  -28.4290   -0.1538   -6.5888 C   0  0  0  0  0  0  0  0  0  0  0  0
  -27.9996   -0.8665   -5.4449 C   0  0  0  0  0  0  0  0  0  0  0  0
  -28.3865   -0.2577   -4.3223 N   0  0  0  0  0  0  0  0  0  0  0  0
  -29.0851    0.8064   -4.7603 N   0  0  0  0  0  0  0  0  0  0  0  0
  -29.1546    0.9091   -6.1216 C   0  0  0  0  0  0  0  0  0  0  0  0
  -29.8814    1.9921   -6.8157 C   0  0  0  0  0  0  0  0  0  0  0  0
  -27.3700   -2.0612   -5.4832 N   0  0  0  0  0  0  0  0  0  0  0  0
  -27.8483   -3.0722   -6.3306 C   0  0  0  0  0  0  0  0  0  0  0  0
  -28.0245   -4.2731   -5.7414 N   0  0  0  0  0  0  0  0  0  0  0  0
  -28.6525   -5.2267   -6.4444 C   0  0  0  0  0  0  0  0  0  0  0  0
  -29.0903   -5.0763   -7.7034 N   0  0  0  0  0  0  0  0  0  0  0  0
  -28.8562   -3.8780   -8.2765 C   0  0  0  0  0  0  0  0  0  0  0  0
  -28.2071   -2.8352   -7.6469 C   0  0  0  0  0  0  0  0  0  0  0  0
  -29.4930    1.4247   -4.0668 H   0  0  0  0  0  0  0  0  0  0  0  0
  -27.2297   -2.4764   -4.5665 H   0  0  0  0  0  0  0  0  0  0  0  0
  -26.4338   -1.6576  -12.4306 C   0  0  0  0  0  0  0  0  0  0  0  0
  -25.5456   -1.7512  -11.3593 C   0  0  0  0  0  0  0  0  0  0  0  0
  -26.0225   -1.7407  -10.0413 C   0  0  0  0  0  0  0  0  0  0  0  0
  -27.3977   -1.6591   -9.7839 C   0  0  0  0  0  0  0  0  0  0  0  0
  -28.2850   -1.5641  -10.8623 C   0  0  0  0  0  0  0  0  0  0  0  0
  -27.8032   -1.5662  -12.1745 C   0  0  0  0  0  0  0  0  0  0  0  0
  -24.7366   -1.3538  -14.0680 C   0  0  0  0  0  0  0  0  0  0  0  0
  -26.0962   -1.6305  -13.7551 O   0  0  0  0  0  0  0  0  0  0  0  0
  -28.9419   -6.7580   -5.5949 S   0  0  0  0  0  0  0  0  0  0  0  0
  -29.3634   -6.1442   -3.9477 C   0  0  0  0  0  0  0  0  0  0  0  0
 24 25  1  0  0  0
 25 18  1  0  0  0
 18 19  1  0  0  0
 18 23  2  0  0  0
 19 20  2  0  0  0
 20 21  1  0  0  0
 21  1  1  0  0  0
 21 22  2  0  0  0
  1  2  2  0  0  0
  1 15  1  0  0  0
  2  3  1  0  0  0
  3  4  1  0  0  0
  3  7  2  0  0  0
  4  5  2  0  0  0
  4  9  1  0  0  0
  5  6  1  0  0  0
  6  7  1  0  0  0
  6 16  1  0  0  0
  7  8  1  0  0  0
  9 10  1  0  0  0
  9 17  1  0  0  0
 10 11  1  0  0  0
 10 15  2  0  0  0
 11 12  2  0  0  0
 12 26  1  0  0  0
 12 13  1  0  0  0
 26 27  1  0  0  0
 13 14  2  0  0  0
 14 15  1  0  0  0
 22 23  1  0  0  0
M  END
> <minimizedAffinity>
-7.07758

$$$$
