CHEMBL2087168


 37 41  0  0  0  0  0  0  0  0999 V2000
  -15.3455   -1.5305  -13.5095 C   0  0  0  0  0  0  0  0  0  0  0  0
  -15.8299   -1.2128  -12.2275 C   0  0  0  0  0  0  0  0  0  0  0  0
  -15.7557   -2.1261  -11.1785 C   0  0  0  0  0  0  0  0  0  0  0  0
  -15.1622   -3.3437  -11.4374 C   0  0  0  0  0  0  0  0  0  0  0  0
  -14.6240   -3.6910  -12.6803 C   0  0  0  0  0  0  0  0  0  0  0  0
  -14.6974   -2.7677  -13.7144 C   0  0  0  0  0  0  0  0  0  0  0  0
  -14.1014   -5.0744  -12.5285 C   0  0  0  0  0  0  0  0  0  0  0  0
  -13.4381   -5.8763  -13.3996 C   0  0  0  0  0  0  0  0  0  0  0  0
  -14.4542   -5.4941  -11.1077 C   0  0  0  0  0  0  0  0  0  0  0  0
  -14.3509   -6.5796  -10.5722 O   0  0  0  0  0  0  0  0  0  0  0  0
  -15.0403   -4.3841  -10.5325 N   0  0  0  0  0  0  0  0  0  0  0  0
  -15.3911   -4.3908   -9.5861 H   0  0  0  0  0  0  0  0  0  0  0  0
  -13.1358   -5.4311  -14.7755 C   0  0  0  0  0  0  0  0  0  0  0  0
  -12.0714   -4.5528  -15.0180 C   0  0  0  0  0  0  0  0  0  0  0  0
  -11.7887   -4.1544  -16.3221 C   0  0  0  0  0  0  0  0  0  0  0  0
  -10.7820   -3.3000  -16.5459 F   0  0  0  0  0  0  0  0  0  0  0  0
  -12.5342   -4.6228  -17.3953 C   0  0  0  0  0  0  0  0  0  0  0  0
  -13.5748   -5.5071  -17.1503 C   0  0  0  0  0  0  0  0  0  0  0  0
  -14.2977   -5.9755  -18.1760 F   0  0  0  0  0  0  0  0  0  0  0  0
  -13.8845   -5.9169  -15.8561 C   0  0  0  0  0  0  0  0  0  0  0  0
  -12.9506   -7.1463  -12.9632 C   0  0  0  0  0  0  0  0  0  0  0  0
  -11.7526   -7.5040  -12.5435 N   0  0  0  0  0  0  0  0  0  0  0  0
  -11.8408   -8.8466  -12.2493 C   0  0  0  0  0  0  0  0  0  0  0  0
  -10.6972   -9.5754  -11.6600 C   0  0  0  0  0  0  0  0  0  0  0  0
  -13.0937   -9.3239  -12.5648 C   0  0  0  0  0  0  0  0  0  0  0  0
  -13.7886   -8.2348  -13.0111 N   0  0  0  0  0  0  0  0  0  0  0  0
  -14.7558   -8.2201  -13.2955 H   0  0  0  0  0  0  0  0  0  0  0  0
  -15.4020   -0.6334  -14.5866 N   0  0  0  0  0  0  0  0  0  0  0  0
  -15.3789   -1.1619  -15.4593 H   0  0  0  0  0  0  0  0  0  0  0  0
  -13.7838    0.6551  -17.5115 N   0  0  0  0  0  0  0  0  0  0  0  0
  -15.0808    1.1352  -17.0040 C   0  0  0  0  0  0  0  0  0  0  0  0
  -14.9957    1.6304  -15.5624 C   0  0  0  0  0  0  0  0  0  0  0  0
  -14.4877    0.5287  -14.6308 C   0  0  0  0  0  0  0  0  0  0  0  0
  -13.1184    0.0866  -15.1534 C   0  0  0  0  0  0  0  0  0  0  0  0
  -13.1937   -0.3595  -16.6154 C   0  0  0  0  0  0  0  0  0  0  0  0
  -13.5328   -1.4035  -18.9432 C   0  0  0  0  0  0  0  0  0  0  0  0
  -13.9347    0.0652  -18.8587 C   0  0  0  0  0  0  0  0  0  0  0  0
 36 37  1  0  0  0
 37 30  1  0  0  0
 30 31  1  0  0  0
 30 35  1  0  0  0
 31 32  1  0  0  0
 32 33  1  0  0  0
 33 28  1  0  0  0
 33 34  1  0  0  0
 28  1  1  0  0  0
 28 29  1  0  0  0
  1  2  1  0  0  0
  1  6  2  0  0  0
  2  3  2  0  0  0
  3  4  1  0  0  0
  4  5  2  0  0  0
  4 11  1  0  0  0
  5  6  1  0  0  0
  5  7  1  0  0  0
  7  8  2  0  0  0
  7  9  1  0  0  0
  8 13  1  0  0  0
  8 21  1  0  0  0
 13 14  1  0  0  0
 13 20  2  0  0  0
 14 15  2  0  0  0
 15 16  1  0  0  0
 15 17  1  0  0  0
 17 18  2  0  0  0
 18 19  1  0  0  0
 18 20  1  0  0  0
 21 22  2  0  0  0
 21 26  1  0  0  0
 22 23  1  0  0  0
 23 24  1  0  0  0
 23 25  2  0  0  0
 25 26  1  0  0  0
 26 27  1  0  0  0
  9 10  2  0  0  0
  9 11  1  0  0  0
 11 12  1  0  0  0
 34 35  1  0  0  0
M  END
> <minimizedAffinity>
-7.03728

$$$$
