CHEMBL2022857


 46 51  0  0  0  0  0  0  0  0999 V2000
  -27.6445    0.3061   -7.4820 N   0  0  0  0  0  0  0  0  0  0  0  0
  -28.1329   -0.8579   -6.9051 C   0  0  0  0  0  0  0  0  0  0  0  0
  -28.6632   -0.6708   -5.6754 N   0  0  0  0  0  0  0  0  0  0  0  0
  -29.2121   -1.7010   -5.0236 C   0  0  0  0  0  0  0  0  0  0  0  0
  -29.3044   -2.9926   -5.5051 C   0  0  0  0  0  0  0  0  0  0  0  0
  -28.7390   -3.1999   -6.7854 C   0  0  0  0  0  0  0  0  0  0  0  0
  -28.7168   -4.6716   -7.6885 S   0  0  0  0  0  0  0  0  0  0  0  0
  -27.8403   -3.9866   -8.9464 C   0  0  0  0  0  0  0  0  0  0  0  0
  -27.6158   -2.6335   -8.7900 C   0  0  0  0  0  0  0  0  0  0  0  0
  -28.1299   -2.1485   -7.5051 C   0  0  0  0  0  0  0  0  0  0  0  0
  -27.9638    1.0961   -6.9320 H   0  0  0  0  0  0  0  0  0  0  0  0
  -27.8434    0.3737   -8.4733 H   0  0  0  0  0  0  0  0  0  0  0  0
  -26.9758   -1.9131   -9.9003 C   0  0  0  0  0  0  0  0  0  0  0  0
  -25.6081   -1.6270   -9.8155 C   0  0  0  0  0  0  0  0  0  0  0  0
  -24.9503   -0.9518  -10.8387 C   0  0  0  0  0  0  0  0  0  0  0  0
  -25.6181   -0.6043  -12.0091 C   0  0  0  0  0  0  0  0  0  0  0  0
  -26.9907   -0.8516  -12.0966 C   0  0  0  0  0  0  0  0  0  0  0  0
  -27.6685   -1.4733  -11.0330 C   0  0  0  0  0  0  0  0  0  0  0  0
  -24.9454    0.0010  -13.0934 N   0  0  0  0  0  0  0  0  0  0  0  0
  -23.6015    0.3317  -13.0707 C   0  0  0  0  0  0  0  0  0  0  0  0
  -22.8119   -0.0062  -12.1948 O   0  0  0  0  0  0  0  0  0  0  0  0
  -23.2479    1.1229  -14.1494 N   0  0  0  0  0  0  0  0  0  0  0  0
  -25.3690   -0.0706  -14.0079 H   0  0  0  0  0  0  0  0  0  0  0  0
  -23.9680    1.7638  -14.4495 H   0  0  0  0  0  0  0  0  0  0  0  0
  -21.9069    1.5207  -14.3509 C   0  0  0  0  0  0  0  0  0  0  0  0
  -21.5064    2.8528  -14.1740 C   0  0  0  0  0  0  0  0  0  0  0  0
  -20.1799    3.2317  -14.3910 C   0  0  0  0  0  0  0  0  0  0  0  0
  -19.2516    2.2801  -14.8000 C   0  0  0  0  0  0  0  0  0  0  0  0
  -19.6575    0.9613  -14.9801 C   0  0  0  0  0  0  0  0  0  0  0  0
  -18.7673    0.0538  -15.4058 F   0  0  0  0  0  0  0  0  0  0  0  0
  -20.9711    0.5645  -14.7402 C   0  0  0  0  0  0  0  0  0  0  0  0
  -29.9283   -4.0502   -4.7387 C   0  0  0  0  0  0  0  0  0  0  0  0
  -31.2760   -4.3066   -4.3826 C   0  0  0  0  0  0  0  0  0  0  0  0
  -31.4303   -5.4544   -3.7111 N   0  0  0  0  0  0  0  0  0  0  0  0
  -30.1795   -5.9369   -3.6348 N   0  0  0  0  0  0  0  0  0  0  0  0
  -29.2431   -5.1238   -4.2067 C   0  0  0  0  0  0  0  0  0  0  0  0
  -29.9481   -7.2459   -3.0599 C   0  0  0  0  0  0  0  0  0  0  0  0
  -28.7900   -7.9825   -3.7314 C   0  0  0  0  0  0  0  0  0  0  0  0
  -29.1470   -9.3866   -4.2465 C   0  0  0  0  0  0  0  0  0  0  0  0
  -29.1144   -9.5011   -5.7104 N   0  0  0  0  0  0  0  0  0  0  0  0
  -30.1942  -10.3456   -6.2506 C   0  0  0  0  0  0  0  0  0  0  0  0
  -30.8652   -9.5621   -7.3718 C   0  0  0  0  0  0  0  0  0  0  0  0
  -30.6033   -8.1177   -7.0013 C   0  0  0  0  0  0  0  0  0  0  0  0
  -31.5764   -7.6539   -6.0674 O   0  0  0  0  0  0  0  0  0  0  0  0
  -29.2126   -8.1820   -6.3772 C   0  0  0  0  0  0  0  0  0  0  0  0
  -31.5652   -8.2524   -5.3023 H   0  0  0  0  0  0  0  0  0  0  0  0
  1  2  1  0  0  0
  1 11  1  0  0  0
  1 12  1  0  0  0
  2  3  1  0  0  0
  2 10  2  0  0  0
  3  4  2  0  0  0
  4  5  1  0  0  0
  5 32  1  0  0  0
  5  6  2  0  0  0
 32 33  1  0  0  0
 32 36  2  0  0  0
 33 34  2  0  0  0
 34 35  1  0  0  0
 35 37  1  0  0  0
 35 36  1  0  0  0
 37 38  1  0  0  0
 38 39  1  0  0  0
 39 40  1  0  0  0
 40 41  1  0  0  0
 40 45  1  0  0  0
 41 42  1  0  0  0
 42 43  1  0  0  0
 43 44  1  0  0  0
 43 45  1  0  0  0
 44 46  1  0  0  0
  6  7  1  0  0  0
  6 10  1  0  0  0
  7  8  1  0  0  0
  8  9  2  0  0  0
  9 13  1  0  0  0
  9 10  1  0  0  0
 13 14  1  0  0  0
 13 18  2  0  0  0
 14 15  2  0  0  0
 15 16  1  0  0  0
 16 19  1  0  0  0
 16 17  2  0  0  0
 19 20  1  0  0  0
 19 23  1  0  0  0
 20 21  2  0  0  0
 20 22  1  0  0  0
 22 25  1  0  0  0
 22 24  1  0  0  0
 25 26  1  0  0  0
 25 31  2  0  0  0
 26 27  2  0  0  0
 27 28  1  0  0  0
 28 29  2  0  0  0
 29 30  1  0  0  0
 29 31  1  0  0  0
 17 18  1  0  0  0
M  END
> <minimizedAffinity>
-9.03048

$$$$
