CHEMBL256682


 28 30  0  0  0  0  0  0  0  0999 V2000
  -29.0899   -4.7385   -5.5020 C   0  0  0  0  0  0  0  0  0  0  0  0
  -28.5262   -5.9489   -5.1133 C   0  0  0  0  0  0  0  0  0  0  0  0
  -28.6877   -7.0949   -5.8972 C   0  0  0  0  0  0  0  0  0  0  0  0
  -29.4578   -7.0831   -7.0709 C   0  0  0  0  0  0  0  0  0  0  0  0
  -30.1504   -5.8953   -7.3512 C   0  0  0  0  0  0  0  0  0  0  0  0
  -29.9423   -4.7249   -6.6049 C   0  0  0  0  0  0  0  0  0  0  0  0
  -29.5086   -8.2686   -7.9518 C   0  0  0  0  0  0  0  0  0  0  0  0
  -28.4273   -8.5992   -8.8011 C   0  0  0  0  0  0  0  0  0  0  0  0
  -28.5056   -9.6884   -9.6580 C   0  0  0  0  0  0  0  0  0  0  0  0
  -29.5554  -10.5243   -9.7569 N   0  0  0  0  0  0  0  0  0  0  0  0
  -30.5690  -10.1849   -8.9399 C   0  0  0  0  0  0  0  0  0  0  0  0
  -31.7489  -10.8558   -8.8474 N   0  0  0  0  0  0  0  0  0  0  0  0
  -32.6269  -10.3052   -7.9943 N   0  0  0  0  0  0  0  0  0  0  0  0
  -31.9802   -9.2354   -7.5356 C   0  0  0  0  0  0  0  0  0  0  0  0
  -32.5912   -8.3920   -6.6874 N   0  0  0  0  0  0  0  0  0  0  0  0
  -30.6494   -9.1127   -8.0553 C   0  0  0  0  0  0  0  0  0  0  0  0
  -32.0051  -11.6926   -9.3533 H   0  0  0  0  0  0  0  0  0  0  0  0
  -33.5846   -8.5560   -6.5611 H   0  0  0  0  0  0  0  0  0  0  0  0
  -32.3641   -7.4044   -6.7327 H   0  0  0  0  0  0  0  0  0  0  0  0
  -28.0743   -1.3903   -4.5026 N   0  0  0  0  0  0  0  0  0  0  0  0
  -28.2220   -2.4226   -5.4095 C   0  0  0  0  0  0  0  0  0  0  0  0
  -27.8664   -2.3103   -6.5769 O   0  0  0  0  0  0  0  0  0  0  0  0
  -28.8247   -3.5207   -4.8346 N   0  0  0  0  0  0  0  0  0  0  0  0
  -27.8771   -1.6850   -3.5562 H   0  0  0  0  0  0  0  0  0  0  0  0
  -29.3544   -3.3330   -3.9986 H   0  0  0  0  0  0  0  0  0  0  0  0
  -27.4229   -0.1815   -4.9704 C   0  0  0  0  0  0  0  0  0  0  0  0
  -28.8683    1.1753   -6.5447 C   0  0  0  0  0  0  0  0  0  0  0  0
  -28.3758    0.9945   -5.1179 C   0  0  0  0  0  0  0  0  0  0  0  0
 27 28  1  0  0  0
 28 26  1  0  0  0
 26 20  1  0  0  0
 20 21  1  0  0  0
 20 24  1  0  0  0
 21 22  2  0  0  0
 21 23  1  0  0  0
 23  1  1  0  0  0
 23 25  1  0  0  0
  1  2  1  0  0  0
  1  6  2  0  0  0
  2  3  2  0  0  0
  3  4  1  0  0  0
  4  7  1  0  0  0
  4  5  2  0  0  0
  7  8  1  0  0  0
  7 16  2  0  0  0
  8  9  2  0  0  0
  9 10  1  0  0  0
 10 11  2  0  0  0
 11 12  1  0  0  0
 11 16  1  0  0  0
 12 13  1  0  0  0
 12 17  1  0  0  0
 13 14  2  0  0  0
 14 15  1  0  0  0
 14 16  1  0  0  0
 15 18  1  0  0  0
 15 19  1  0  0  0
  5  6  1  0  0  0
M  END
> <minimizedAffinity>
-8.38919

$$$$
