CHEMBL3671548


 34 36  0  0  0  0  0  0  0  0999 V2000
  -28.5107   -5.7380   -7.3631 C   0  0  0  0  0  0  0  0  0  0  0  0
  -28.2480   -4.6796   -8.2385 C   0  0  0  0  0  0  0  0  0  0  0  0
  -28.1924   -3.3445   -7.7858 C   0  0  0  0  0  0  0  0  0  0  0  0
  -28.0712   -2.2293   -8.6289 C   0  0  0  0  0  0  0  0  0  0  0  0
  -28.0409   -0.9759   -8.1443 N   0  0  0  0  0  0  0  0  0  0  0  0
  -28.1475   -0.8351   -6.8222 C   0  0  0  0  0  0  0  0  0  0  0  0
  -28.3073   -1.8224   -5.9371 N   0  0  0  0  0  0  0  0  0  0  0  0
  -28.3439   -3.0678   -6.4221 C   0  0  0  0  0  0  0  0  0  0  0  0
  -28.5594   -4.1246   -5.5570 C   0  0  0  0  0  0  0  0  0  0  0  0
  -28.6264   -5.4595   -5.9941 C   0  0  0  0  0  0  0  0  0  0  0  0
  -29.9393   -7.6921   -7.9514 C   0  0  0  0  0  0  0  0  0  0  0  0
  -30.1028   -8.7844   -8.4941 O   0  0  0  0  0  0  0  0  0  0  0  0
  -28.7192   -7.0179   -7.9472 N   0  0  0  0  0  0  0  0  0  0  0  0
  -27.6533   -7.5404   -8.7987 C   0  0  0  0  0  0  0  0  0  0  0  0
  -32.1445   -7.7650   -6.9033 C   0  0  0  0  0  0  0  0  0  0  0  0
  -31.0914   -7.0298   -7.2850 C   0  0  0  0  0  0  0  0  0  0  0  0
  -28.0467   -2.4154  -10.0355 N   0  0  0  0  0  0  0  0  0  0  0  0
  -28.3298   -3.3608  -10.2826 H   0  0  0  0  0  0  0  0  0  0  0  0
  -27.0306   -1.9267  -10.8865 C   0  0  0  0  0  0  0  0  0  0  0  0
  -25.7746   -1.5658  -10.3802 C   0  0  0  0  0  0  0  0  0  0  0  0
  -24.7497   -1.1539  -11.2343 C   0  0  0  0  0  0  0  0  0  0  0  0
  -24.9856   -1.0845  -12.6063 C   0  0  0  0  0  0  0  0  0  0  0  0
  -23.5758   -0.5986  -13.7670 Br  0  0  0  0  0  0  0  0  0  0  0  0
  -26.2411   -1.3847  -13.1270 C   0  0  0  0  0  0  0  0  0  0  0  0
  -27.2532   -1.7916  -12.2615 C   0  0  0  0  0  0  0  0  0  0  0  0
  -28.4607   -2.0928  -12.7658 F   0  0  0  0  0  0  0  0  0  0  0  0
  -28.8085   -6.3462   -4.9680 O   0  0  0  0  0  0  0  0  0  0  0  0
  -27.6898   -7.1096   -4.5117 C   0  0  0  0  0  0  0  0  0  0  0  0
  -27.7538   -8.6048   -4.8399 C   0  0  0  0  0  0  0  0  0  0  0  0
  -26.5034   -9.0699   -5.4193 N   0  0  0  0  0  0  0  0  0  0  0  0
  -25.4645   -9.5425   -4.6526 C   0  0  0  0  0  0  0  0  0  0  0  0
  -24.2230   -9.8805   -5.4323 C   0  0  0  0  0  0  0  0  0  0  0  0
  -25.5230   -9.6971   -3.4369 O   0  0  0  0  0  0  0  0  0  0  0  0
  -26.3913   -9.0137   -6.4231 H   0  0  0  0  0  0  0  0  0  0  0  0
 15 16  2  0  0  0
 16 11  1  0  0  0
 11 12  2  0  0  0
 11 13  1  0  0  0
 13 14  1  0  0  0
 13  1  1  0  0  0
  1  2  1  0  0  0
  1 10  2  0  0  0
  2  3  2  0  0  0
  3  4  1  0  0  0
  3  8  1  0  0  0
  4 17  1  0  0  0
  4  5  2  0  0  0
 17 19  1  0  0  0
 17 18  1  0  0  0
 19 20  1  0  0  0
 19 25  2  0  0  0
 20 21  2  0  0  0
 21 22  1  0  0  0
 22 23  1  0  0  0
 22 24  2  0  0  0
 24 25  1  0  0  0
 25 26  1  0  0  0
  5  6  1  0  0  0
  6  7  2  0  0  0
  7  8  1  0  0  0
  8  9  2  0  0  0
  9 10  1  0  0  0
 10 27  1  0  0  0
 27 28  1  0  0  0
 28 29  1  0  0  0
 29 30  1  0  0  0
 30 31  1  0  0  0
 30 34  1  0  0  0
 31 32  1  0  0  0
 31 33  2  0  0  0
M  END
> <minimizedAffinity>
-8.40447

$$$$
