CHEMBL4578452


 43 48  0  0  0  0  0  0  0  0999 V2000
  -28.2855   -8.6869   -4.7617 N   0  0  0  0  0  0  0  0  0  0  0  0
  -28.9446   -9.2170   -4.1881 H   0  0  0  0  0  0  0  0  0  0  0  0
  -24.6847  -11.1607   -6.9814 N   0  0  0  0  0  0  0  0  0  0  0  0
  -25.3833  -11.0662   -8.1734 C   0  0  0  0  0  0  0  0  0  0  0  0
  -26.5774  -10.4884   -8.3523 C   0  0  0  0  0  0  0  0  0  0  0  0
  -27.2541   -9.9443   -7.1481 C   0  0  0  0  0  0  0  0  0  0  0  0
  -28.4260   -9.5776   -7.1963 O   0  0  0  0  0  0  0  0  0  0  0  0
  -26.4734   -9.8950   -5.8831 C   0  0  0  0  0  0  0  0  0  0  0  0
  -27.0018   -9.2677   -4.7429 C   0  0  0  0  0  0  0  0  0  0  0  0
  -26.2757   -9.1783   -3.6053 N   0  0  0  0  0  0  0  0  0  0  0  0
  -25.0589   -9.7405   -3.5673 C   0  0  0  0  0  0  0  0  0  0  0  0
  -24.5042  -10.4344   -4.6243 C   0  0  0  0  0  0  0  0  0  0  0  0
  -25.2031  -10.5176   -5.8318 C   0  0  0  0  0  0  0  0  0  0  0  0
  -27.1969  -10.4600   -9.6786 C   0  0  0  0  0  0  0  0  0  0  0  0
  -26.7682   -9.5292  -10.6356 C   0  0  0  0  0  0  0  0  0  0  0  0
  -27.3913   -9.4720  -11.8826 C   0  0  0  0  0  0  0  0  0  0  0  0
  -28.4327  -10.3479  -12.1694 C   0  0  0  0  0  0  0  0  0  0  0  0
  -29.0331  -10.2905  -13.3652 F   0  0  0  0  0  0  0  0  0  0  0  0
  -28.8630  -11.2825  -11.2343 C   0  0  0  0  0  0  0  0  0  0  0  0
  -28.2455  -11.3399   -9.9842 C   0  0  0  0  0  0  0  0  0  0  0  0
  -22.2513  -11.2831   -7.3563 C   0  0  0  0  0  0  0  0  0  0  0  0
  -23.4951  -12.0259   -6.8853 C   0  0  0  0  0  0  0  0  0  0  0  0
  -28.6592   -7.3607   -5.0253 C   0  0  0  0  0  0  0  0  0  0  0  0
  -29.7124   -7.1129   -5.9136 C   0  0  0  0  0  0  0  0  0  0  0  0
  -30.1078   -5.8056   -6.2087 C   0  0  0  0  0  0  0  0  0  0  0  0
  -29.4971   -4.7198   -5.5697 C   0  0  0  0  0  0  0  0  0  0  0  0
  -28.4296   -4.9634   -4.7115 C   0  0  0  0  0  0  0  0  0  0  0  0
  -27.7855   -3.9443   -4.1228 F   0  0  0  0  0  0  0  0  0  0  0  0
  -28.0143   -6.2645   -4.4418 C   0  0  0  0  0  0  0  0  0  0  0  0
  -29.8726   -3.4038   -5.7587 O   0  0  0  0  0  0  0  0  0  0  0  0
  -28.9880   -2.5497   -6.3850 C   0  0  0  0  0  0  0  0  0  0  0  0
  -28.5979   -1.3317   -5.8361 C   0  0  0  0  0  0  0  0  0  0  0  0
  -27.8250   -0.5000   -6.6081 C   0  0  0  0  0  0  0  0  0  0  0  0
  -27.3754   -0.8367   -7.8257 N   0  0  0  0  0  0  0  0  0  0  0  0
  -27.6767   -2.0478   -8.3192 C   0  0  0  0  0  0  0  0  0  0  0  0
  -28.4743   -2.9490   -7.6211 C   0  0  0  0  0  0  0  0  0  0  0  0
  -27.1959   -2.3985   -9.5908 N   0  0  0  0  0  0  0  0  0  0  0  0
  -27.4842   -1.6938  -10.7438 C   0  0  0  0  0  0  0  0  0  0  0  0
  -28.1843   -0.6999  -10.8639 O   0  0  0  0  0  0  0  0  0  0  0  0
  -26.6287   -3.2229   -9.6551 H   0  0  0  0  0  0  0  0  0  0  0  0
  -26.8623   -2.2951  -11.9686 C   0  0  0  0  0  0  0  0  0  0  0  0
  -26.0621   -1.4337  -12.9204 C   0  0  0  0  0  0  0  0  0  0  0  0
  -27.4173   -1.9340  -13.3278 C   0  0  0  0  0  0  0  0  0  0  0  0
 21 22  1  0  0  0
 22  3  1  0  0  0
  3  4  1  0  0  0
  3 13  1  0  0  0
  4  5  2  0  0  0
  5 14  1  0  0  0
  5  6  1  0  0  0
 14 15  1  0  0  0
 14 20  2  0  0  0
 15 16  2  0  0  0
 16 17  1  0  0  0
 17 18  1  0  0  0
 17 19  2  0  0  0
 19 20  1  0  0  0
  6  7  2  0  0  0
  6  8  1  0  0  0
  8  9  1  0  0  0
  8 13  2  0  0  0
  9  1  1  0  0  0
  9 10  2  0  0  0
  1 23  1  0  0  0
  1  2  1  0  0  0
 23 24  1  0  0  0
 23 29  2  0  0  0
 24 25  2  0  0  0
 25 26  1  0  0  0
 26 30  1  0  0  0
 26 27  2  0  0  0
 30 31  1  0  0  0
 31 32  1  0  0  0
 31 36  2  0  0  0
 32 33  2  0  0  0
 33 34  1  0  0  0
 34 35  2  0  0  0
 35 37  1  0  0  0
 35 36  1  0  0  0
 37 38  1  0  0  0
 37 40  1  0  0  0
 38 39  2  0  0  0
 38 41  1  0  0  0
 41 42  1  0  0  0
 41 43  1  0  0  0
 42 43  1  0  0  0
 27 28  1  0  0  0
 27 29  1  0  0  0
 10 11  1  0  0  0
 11 12  2  0  0  0
 12 13  1  0  0  0
M  END
> <minimizedAffinity>
-10.18277

$$$$
