CHEMBL258805


 20 22  0  0  0  0  0  0  0  0999 V2000
  -29.4142   -1.8615   -5.1384 C   0  0  0  0  0  0  0  0  0  0  0  0
  -28.9142   -1.9469   -3.8234 C   0  0  0  0  0  0  0  0  0  0  0  0
  -28.7405   -3.1787   -3.1997 C   0  0  0  0  0  0  0  0  0  0  0  0
  -29.0645   -4.3009   -3.9311 C   0  0  0  0  0  0  0  0  0  0  0  0
  -29.5451   -4.2495   -5.2460 C   0  0  0  0  0  0  0  0  0  0  0  0
  -29.7255   -3.0207   -5.8662 C   0  0  0  0  0  0  0  0  0  0  0  0
  -29.7935   -5.6522   -5.6382 C   0  0  0  0  0  0  0  0  0  0  0  0
  -30.2474   -6.0766   -6.8321 C   0  0  0  0  0  0  0  0  0  0  0  0
  -29.4316   -6.4984   -4.4336 C   0  0  0  0  0  0  0  0  0  0  0  0
  -29.5411   -7.6995   -4.2802 O   0  0  0  0  0  0  0  0  0  0  0  0
  -28.9884   -5.6078   -3.4793 N   0  0  0  0  0  0  0  0  0  0  0  0
  -28.6866   -5.9020   -2.5635 H   0  0  0  0  0  0  0  0  0  0  0  0
  -30.5537   -7.4215   -7.1699 C   0  0  0  0  0  0  0  0  0  0  0  0
  -30.0103   -8.3586   -8.0274 C   0  0  0  0  0  0  0  0  0  0  0  0
  -30.7403   -9.5231   -8.0258 N   0  0  0  0  0  0  0  0  0  0  0  0
  -31.7196   -9.3119   -7.1756 C   0  0  0  0  0  0  0  0  0  0  0  0
  -31.6615   -8.0563   -6.6572 N   0  0  0  0  0  0  0  0  0  0  0  0
  -32.2656   -7.7005   -5.9292 H   0  0  0  0  0  0  0  0  0  0  0  0
  -28.6458    0.3718   -5.0080 C   0  0  0  0  0  0  0  0  0  0  0  0
  -29.5093   -0.5809   -5.6151 O   0  0  0  0  0  0  0  0  0  0  0  0
 19 20  1  0  0  0
 20  1  1  0  0  0
  1  2  1  0  0  0
  1  6  2  0  0  0
  2  3  2  0  0  0
  3  4  1  0  0  0
  4  5  2  0  0  0
  4 11  1  0  0  0
  5  6  1  0  0  0
  5  7  1  0  0  0
  7  8  2  0  0  0
  7  9  1  0  0  0
  8 13  1  0  0  0
 13 14  2  0  0  0
 13 17  1  0  0  0
 14 15  1  0  0  0
 15 16  2  0  0  0
 16 17  1  0  0  0
 17 18  1  0  0  0
  9 10  2  0  0  0
  9 11  1  0  0  0
 11 12  1  0  0  0
M  END
> <minimizedAffinity>
-6.96886

$$$$
