CHEMBL3353348


 37 42  0  0  0  0  0  0  0  0999 V2000
  -29.8845   -6.4140   -6.7766 C   0  0  0  0  0  0  0  0  0  0  0  0
  -28.8663   -6.3713   -7.7482 C   0  0  0  0  0  0  0  0  0  0  0  0
  -28.2351   -5.1761   -8.1375 C   0  0  0  0  0  0  0  0  0  0  0  0
  -28.6210   -3.9706   -7.5208 C   0  0  0  0  0  0  0  0  0  0  0  0
  -28.2938   -2.5841   -7.6386 C   0  0  0  0  0  0  0  0  0  0  0  0
  -28.9683   -1.8489   -6.7395 N   0  0  0  0  0  0  0  0  0  0  0  0
  -29.7154   -2.7431   -6.0785 N   0  0  0  0  0  0  0  0  0  0  0  0
  -29.5830   -4.0295   -6.5194 C   0  0  0  0  0  0  0  0  0  0  0  0
  -30.2160   -5.2148   -6.1221 C   0  0  0  0  0  0  0  0  0  0  0  0
  -30.3169   -2.4072   -5.3347 H   0  0  0  0  0  0  0  0  0  0  0  0
  -27.7180   -9.3836   -9.9673 C   0  0  0  0  0  0  0  0  0  0  0  0
  -28.5370  -10.1614  -10.8102 C   0  0  0  0  0  0  0  0  0  0  0  0
  -29.8050  -10.5715  -10.4050 C   0  0  0  0  0  0  0  0  0  0  0  0
  -30.2296  -10.1460   -9.1647 C   0  0  0  0  0  0  0  0  0  0  0  0
  -29.4650   -9.3271   -8.3130 C   0  0  0  0  0  0  0  0  0  0  0  0
  -28.1741   -8.9875   -8.6994 C   0  0  0  0  0  0  0  0  0  0  0  0
  -30.2874   -9.0660   -7.0790 C   0  0  0  0  0  0  0  0  0  0  0  0
  -29.6711   -8.8138   -5.7353 C   0  0  0  0  0  0  0  0  0  0  0  0
  -30.5123   -7.7321   -6.3829 C   0  0  0  0  0  0  0  0  0  0  0  0
  -31.5163   -9.9330   -7.2737 C   0  0  0  0  0  0  0  0  0  0  0  0
  -32.4066  -10.0872   -6.4600 O   0  0  0  0  0  0  0  0  0  0  0  0
  -31.4301  -10.4824   -8.5411 N   0  0  0  0  0  0  0  0  0  0  0  0
  -32.1317  -11.1019   -8.9127 H   0  0  0  0  0  0  0  0  0  0  0  0
  -26.4345   -8.9789  -11.9316 C   0  0  0  0  0  0  0  0  0  0  0  0
  -26.5010   -9.0759  -10.5149 O   0  0  0  0  0  0  0  0  0  0  0  0
  -27.4035   -2.0211   -8.6175 C   0  0  0  0  0  0  0  0  0  0  0  0
  -27.5349   -2.1797   -9.9467 C   0  0  0  0  0  0  0  0  0  0  0  0
  -26.5947   -1.6850  -10.9644 C   0  0  0  0  0  0  0  0  0  0  0  0
  -25.3156   -1.2143  -10.6421 C   0  0  0  0  0  0  0  0  0  0  0  0
  -24.4194   -0.8313  -11.6454 C   0  0  0  0  0  0  0  0  0  0  0  0
  -24.7724   -0.9378  -12.9970 C   0  0  0  0  0  0  0  0  0  0  0  0
  -26.0527   -1.4029  -13.3219 C   0  0  0  0  0  0  0  0  0  0  0  0
  -26.9508   -1.7759  -12.3168 C   0  0  0  0  0  0  0  0  0  0  0  0
  -23.7839   -0.5784  -14.0877 C   0  0  0  0  0  0  0  0  0  0  0  0
  -22.7427    0.3771  -13.6636 N   0  0  0  0  0  0  0  0  0  0  0  0
  -21.5353    0.2847  -14.4898 C   0  0  0  0  0  0  0  0  0  0  0  0
  -23.2702    1.7427  -13.7286 C   0  0  0  0  0  0  0  0  0  0  0  0
 24 25  1  0  0  0
 25 11  1  0  0  0
 11 12  1  0  0  0
 11 16  2  0  0  0
 12 13  2  0  0  0
 13 14  1  0  0  0
 14 15  2  0  0  0
 14 22  1  0  0  0
 15 16  1  0  0  0
 17 15  1  0  0  0
 17 18  1  0  0  0
 17 19  1  0  0  0
 17 20  1  0  0  0
 18 19  1  0  0  0
 19  1  1  0  0  0
  1  2  1  0  0  0
  1  9  2  0  0  0
  2  3  2  0  0  0
  3  4  1  0  0  0
  4  5  1  0  0  0
  4  8  2  0  0  0
  5 26  1  0  0  0
  5  6  2  0  0  0
 26 27  2  0  0  0
 27 28  1  0  0  0
 28 29  1  0  0  0
 28 33  2  0  0  0
 29 30  2  0  0  0
 30 31  1  0  0  0
 31 34  1  0  0  0
 31 32  2  0  0  0
 34 35  1  0  0  0
 35 36  1  0  0  0
 35 37  1  0  0  0
 32 33  1  0  0  0
  6  7  1  0  0  0
  7  8  1  0  0  0
  7 10  1  0  0  0
  8  9  1  0  0  0
 20 21  2  0  0  0
 20 22  1  0  0  0
 22 23  1  0  0  0
M  END
> <minimizedAffinity>
-9.35374

$$$$
