CHEMBL3323603


 29 33  0  0  0  0  0  0  0  0999 V2000
  -24.9155   11.2712  -16.8299 C   0  0  0  0  0  0  0  0  0  0  0  0
  -25.6937   10.2072  -16.7723 N   0  0  0  0  0  0  0  0  0  0  0  0
  -26.8530   10.6148  -16.1695 C   0  0  0  0  0  0  0  0  0  0  0  0
  -27.9980    9.8780  -15.8578 C   0  0  0  0  0  0  0  0  0  0  0  0
  -29.0686   10.5397  -15.2447 C   0  0  0  0  0  0  0  0  0  0  0  0
  -29.0180   11.9089  -14.9388 C   0  0  0  0  0  0  0  0  0  0  0  0
  -27.8656   12.6524  -15.2537 C   0  0  0  0  0  0  0  0  0  0  0  0
  -26.8066   11.9683  -15.8642 C   0  0  0  0  0  0  0  0  0  0  0  0
  -25.5607   12.3601  -16.2854 N   0  0  0  0  0  0  0  0  0  0  0  0
  -25.1896   13.2965  -16.2399 H   0  0  0  0  0  0  0  0  0  0  0  0
  -21.9859   12.6290  -20.8576 Cl  0  0  0  0  0  0  0  0  0  0  0  0
  -22.1654   11.9210  -19.2995 C   0  0  0  0  0  0  0  0  0  0  0  0
  -21.0515   11.4031  -18.6437 C   0  0  0  0  0  0  0  0  0  0  0  0
  -21.1977   10.8281  -17.3814 C   0  0  0  0  0  0  0  0  0  0  0  0
  -22.4563   10.7813  -16.7737 C   0  0  0  0  0  0  0  0  0  0  0  0
  -23.5801   11.3080  -17.4256 C   0  0  0  0  0  0  0  0  0  0  0  0
  -23.4225   11.8700  -18.7015 C   0  0  0  0  0  0  0  0  0  0  0  0
  -30.0840   12.5347  -14.2583 N   0  0  0  0  0  0  0  0  0  0  0  0
  -30.3010   13.4710  -14.5803 H   0  0  0  0  0  0  0  0  0  0  0  0
  -30.6362   12.2347  -12.9854 C   0  0  0  0  0  0  0  0  0  0  0  0
  -29.9995   12.6589  -11.8156 C   0  0  0  0  0  0  0  0  0  0  0  0
  -30.5474   12.3259  -10.5946 C   0  0  0  0  0  0  0  0  0  0  0  0
  -31.6788   11.6128  -10.4530 N   0  0  0  0  0  0  0  0  0  0  0  0
  -32.2997   11.1907  -11.5647 C   0  0  0  0  0  0  0  0  0  0  0  0
  -33.4672   10.4566  -11.4129 C   0  0  0  0  0  0  0  0  0  0  0  0
  -34.1779    9.9634  -12.5080 C   0  0  0  0  0  0  0  0  0  0  0  0
  -33.7049   10.1922  -13.7917 C   0  0  0  0  0  0  0  0  0  0  0  0
  -32.5332   10.9270  -13.9726 C   0  0  0  0  0  0  0  0  0  0  0  0
  -31.8193   11.4567  -12.8690 C   0  0  0  0  0  0  0  0  0  0  0  0
 11 12  1  0  0  0
 12 13  1  0  0  0
 12 17  2  0  0  0
 13 14  2  0  0  0
 14 15  1  0  0  0
 15 16  2  0  0  0
 16  1  1  0  0  0
 16 17  1  0  0  0
  1  2  2  0  0  0
  1  9  1  0  0  0
  2  3  1  0  0  0
  3  4  1  0  0  0
  3  8  2  0  0  0
  4  5  2  0  0  0
  5  6  1  0  0  0
  6 18  1  0  0  0
  6  7  2  0  0  0
 18 20  1  0  0  0
 18 19  1  0  0  0
 20 21  1  0  0  0
 20 29  2  0  0  0
 21 22  2  0  0  0
 22 23  1  0  0  0
 23 24  2  0  0  0
 24 25  1  0  0  0
 24 29  1  0  0  0
 25 26  2  0  0  0
 26 27  1  0  0  0
 27 28  2  0  0  0
 28 29  1  0  0  0
  7  8  1  0  0  0
  8  9  1  0  0  0
  9 10  1  0  0  0
M  END
> <minimizedAffinity>
-6.54425

$$$$
