CHEMBL1969102


 37 41  0  0  0  0  0  0  0  0999 V2000
  -15.0047    0.4935  -13.9601 C   0  0  0  0  0  0  0  0  0  0  0  0
  -13.6835    0.2021  -13.6181 C   0  0  0  0  0  0  0  0  0  0  0  0
  -13.2885   -1.1138  -13.3728 C   0  0  0  0  0  0  0  0  0  0  0  0
  -14.2149   -2.1670  -13.4198 C   0  0  0  0  0  0  0  0  0  0  0  0
  -15.5614   -1.8422  -13.6273 C   0  0  0  0  0  0  0  0  0  0  0  0
  -15.9560   -0.5237  -13.9117 C   0  0  0  0  0  0  0  0  0  0  0  0
  -13.7543   -3.5589  -13.2658 C   0  0  0  0  0  0  0  0  0  0  0  0
  -13.1633   -4.1754  -14.3506 C   0  0  0  0  0  0  0  0  0  0  0  0
  -12.7777   -5.7930  -14.0774 S   0  0  0  0  0  0  0  0  0  0  0  0
  -13.2897   -5.7396  -12.4270 C   0  0  0  0  0  0  0  0  0  0  0  0
  -13.2271   -6.7850  -11.4752 C   0  0  0  0  0  0  0  0  0  0  0  0
  -13.7565   -6.4805  -10.2331 C   0  0  0  0  0  0  0  0  0  0  0  0
  -14.3222   -5.3086   -9.9015 N   0  0  0  0  0  0  0  0  0  0  0  0
  -14.3938   -4.3151  -10.8081 C   0  0  0  0  0  0  0  0  0  0  0  0
  -15.0569   -3.1875  -10.3396 N   0  0  0  0  0  0  0  0  0  0  0  0
  -13.8481   -4.4764  -12.1156 C   0  0  0  0  0  0  0  0  0  0  0  0
  -15.5146   -3.4254   -9.4652 H   0  0  0  0  0  0  0  0  0  0  0  0
  -15.6632   -2.7658  -11.0323 H   0  0  0  0  0  0  0  0  0  0  0  0
  -12.6511   -8.0902  -11.7560 C   0  0  0  0  0  0  0  0  0  0  0  0
  -11.3185   -8.5683  -11.7227 C   0  0  0  0  0  0  0  0  0  0  0  0
  -11.2187   -9.8622  -12.0383 N   0  0  0  0  0  0  0  0  0  0  0  0
  -12.4866  -10.2283  -12.2671 N   0  0  0  0  0  0  0  0  0  0  0  0
  -13.3824   -9.2108  -12.1021 C   0  0  0  0  0  0  0  0  0  0  0  0
  -12.6688  -11.1926  -12.5260 H   0  0  0  0  0  0  0  0  0  0  0  0
  -15.1802    3.5987  -15.8334 N   0  0  0  0  0  0  0  0  0  0  0  0
  -14.6941    2.3498  -15.5016 C   0  0  0  0  0  0  0  0  0  0  0  0
  -13.8031    1.7603  -16.1005 O   0  0  0  0  0  0  0  0  0  0  0  0
  -15.3726    1.7838  -14.4214 N   0  0  0  0  0  0  0  0  0  0  0  0
  -15.7605    4.0566  -15.1468 H   0  0  0  0  0  0  0  0  0  0  0  0
  -16.3528    2.0178  -14.3672 H   0  0  0  0  0  0  0  0  0  0  0  0
  -11.9968    6.8114  -17.8611 C   0  0  0  0  0  0  0  0  0  0  0  0
  -13.2202    5.9497  -17.9649 C   0  0  0  0  0  0  0  0  0  0  0  0
  -13.9503    5.9186  -19.1587 C   0  0  0  0  0  0  0  0  0  0  0  0
  -15.0808    5.1245  -19.2577 C   0  0  0  0  0  0  0  0  0  0  0  0
  -15.5016    4.3610  -18.1690 C   0  0  0  0  0  0  0  0  0  0  0  0
  -14.7884    4.3609  -16.9661 C   0  0  0  0  0  0  0  0  0  0  0  0
  -13.6430    5.1655  -16.8742 C   0  0  0  0  0  0  0  0  0  0  0  0
 31 32  1  0  0  0
 32 33  1  0  0  0
 32 37  2  0  0  0
 33 34  2  0  0  0
 34 35  1  0  0  0
 35 36  2  0  0  0
 36 25  1  0  0  0
 36 37  1  0  0  0
 25 26  1  0  0  0
 25 29  1  0  0  0
 26 27  2  0  0  0
 26 28  1  0  0  0
 28  1  1  0  0  0
 28 30  1  0  0  0
  1  2  1  0  0  0
  1  6  2  0  0  0
  2  3  2  0  0  0
  3  4  1  0  0  0
  4  7  1  0  0  0
  4  5  2  0  0  0
  7  8  2  0  0  0
  7 16  1  0  0  0
  8  9  1  0  0  0
  9 10  1  0  0  0
 10 11  1  0  0  0
 10 16  2  0  0  0
 11 19  1  0  0  0
 11 12  2  0  0  0
 19 20  1  0  0  0
 19 23  2  0  0  0
 20 21  2  0  0  0
 21 22  1  0  0  0
 22 23  1  0  0  0
 22 24  1  0  0  0
 12 13  1  0  0  0
 13 14  2  0  0  0
 14 15  1  0  0  0
 14 16  1  0  0  0
 15 17  1  0  0  0
 15 18  1  0  0  0
  5  6  1  0  0  0
M  END
> <minimizedAffinity>
-7.48997

$$$$
