CHEMBL399546


 31 34  0  0  0  0  0  0  0  0999 V2000
  -17.3447    1.3721  -13.3323 O   0  0  0  0  0  0  0  0  0  0  0  0
  -17.3833    1.3254  -14.5573 C   0  0  0  0  0  0  0  0  0  0  0  0
  -18.5017    1.5122  -15.3498 N   0  0  0  0  0  0  0  0  0  0  0  0
  -18.3641    1.4592  -16.3564 H   0  0  0  0  0  0  0  0  0  0  0  0
  -19.8013    1.8475  -14.8997 C   0  0  0  0  0  0  0  0  0  0  0  0
  -20.3416    3.1309  -14.9901 C   0  0  0  0  0  0  0  0  0  0  0  0
  -21.6391    3.3885  -14.5544 C   0  0  0  0  0  0  0  0  0  0  0  0
  -22.4137    2.3607  -14.0228 C   0  0  0  0  0  0  0  0  0  0  0  0
  -21.9198    1.0480  -13.9314 C   0  0  0  0  0  0  0  0  0  0  0  0
  -20.5955    0.8198  -14.3664 C   0  0  0  0  0  0  0  0  0  0  0  0
  -22.7817   -0.0578  -13.4495 C   0  0  0  0  0  0  0  0  0  0  0  0
  -22.5720   -0.6378  -12.1829 C   0  0  0  0  0  0  0  0  0  0  0  0
  -23.3995   -1.6518  -11.6937 C   0  0  0  0  0  0  0  0  0  0  0  0
  -24.4681   -2.1048  -12.4584 C   0  0  0  0  0  0  0  0  0  0  0  0
  -24.6961   -1.5565  -13.7171 C   0  0  0  0  0  0  0  0  0  0  0  0
  -23.8564   -0.5513  -14.2101 C   0  0  0  0  0  0  0  0  0  0  0  0
  -16.0978    1.0811  -15.2613 C   0  0  0  0  0  0  0  0  0  0  0  0
  -15.8558    1.8843  -16.3885 C   0  0  0  0  0  0  0  0  0  0  0  0
  -14.6779    1.7438  -17.1043 C   0  0  0  0  0  0  0  0  0  0  0  0
  -13.7774    0.8004  -16.6609 C   0  0  0  0  0  0  0  0  0  0  0  0
  -13.9699    0.0293  -15.5666 N   0  0  0  0  0  0  0  0  0  0  0  0
  -15.1076    0.1737  -14.8424 C   0  0  0  0  0  0  0  0  0  0  0  0
  -15.3005   -0.6577  -13.7207 N   0  0  0  0  0  0  0  0  0  0  0  0
  -14.9097   -0.1921  -12.8995 H   0  0  0  0  0  0  0  0  0  0  0  0
  -14.7028   -1.9974  -13.8300 C   0  0  0  0  0  0  0  0  0  0  0  0
  -15.4588   -2.9539  -12.9355 C   0  0  0  0  0  0  0  0  0  0  0  0
  -15.5510   -2.7188  -11.5598 C   0  0  0  0  0  0  0  0  0  0  0  0
  -16.1855   -3.6607  -10.7655 C   0  0  0  0  0  0  0  0  0  0  0  0
  -16.7218   -4.8041  -11.2408 N   0  0  0  0  0  0  0  0  0  0  0  0
  -16.6198   -5.0152  -12.5705 C   0  0  0  0  0  0  0  0  0  0  0  0
  -16.0079   -4.1339  -13.4469 C   0  0  0  0  0  0  0  0  0  0  0  0
  1  2  2  0  0  0
  2  3  1  0  0  0
  2 17  1  0  0  0
  3  5  1  0  0  0
  3  4  1  0  0  0
  5  6  1  0  0  0
  5 10  2  0  0  0
  6  7  2  0  0  0
  7  8  1  0  0  0
  8  9  2  0  0  0
  9 11  1  0  0  0
  9 10  1  0  0  0
 11 12  1  0  0  0
 11 16  2  0  0  0
 12 13  2  0  0  0
 13 14  1  0  0  0
 14 15  2  0  0  0
 15 16  1  0  0  0
 17 18  1  0  0  0
 17 22  2  0  0  0
 18 19  2  0  0  0
 19 20  1  0  0  0
 20 21  2  0  0  0
 21 22  1  0  0  0
 22 23  1  0  0  0
 23 25  1  0  0  0
 23 24  1  0  0  0
 25 26  1  0  0  0
 26 27  1  0  0  0
 26 31  2  0  0  0
 27 28  2  0  0  0
 28 29  1  0  0  0
 29 30  2  0  0  0
 30 31  1  0  0  0
M  END
> <minimizedAffinity>
-10.67467

$$$$
