CHEMBL3958312


 32 35  0  0  0  0  0  0  0  0999 V2000
  -23.6098   -1.1785  -12.5901 N   0  0  0  0  0  0  0  0  0  0  0  0
  -23.0682    0.0654  -13.0845 C   0  0  0  0  0  0  0  0  0  0  0  0
  -23.8291    1.2629  -13.0829 C   0  0  0  0  0  0  0  0  0  0  0  0
  -23.2974    2.4582  -13.5730 C   0  0  0  0  0  0  0  0  0  0  0  0
  -21.9989    2.4875  -14.0753 C   0  0  0  0  0  0  0  0  0  0  0  0
  -21.4583    3.6432  -14.5395 N   0  0  0  0  0  0  0  0  0  0  0  0
  -20.1884    3.6859  -15.0161 C   0  0  0  0  0  0  0  0  0  0  0  0
  -19.4136    2.5120  -15.0349 C   0  0  0  0  0  0  0  0  0  0  0  0
  -19.9650    1.3541  -14.5821 N   0  0  0  0  0  0  0  0  0  0  0  0
  -21.2316    1.3106  -14.1003 C   0  0  0  0  0  0  0  0  0  0  0  0
  -21.7647    0.1125  -13.6238 C   0  0  0  0  0  0  0  0  0  0  0  0
  -18.0198    2.5030  -15.5109 C   0  0  0  0  0  0  0  0  0  0  0  0
  -17.2663    3.6073  -15.8696 C   0  0  0  0  0  0  0  0  0  0  0  0
  -16.0460    3.1981  -16.2643 N   0  0  0  0  0  0  0  0  0  0  0  0
  -16.0153    1.8775  -16.1680 N   0  0  0  0  0  0  0  0  0  0  0  0
  -14.8637    1.0593  -16.5165 C   0  0  0  0  0  0  0  0  0  0  0  0
  -17.1931    1.4159  -15.7129 C   0  0  0  0  0  0  0  0  0  0  0  0
  -26.5945   -1.3858  -10.2415 C   0  0  0  0  0  0  0  0  0  0  0  0
  -27.6533   -1.4940  -11.1502 C   0  0  0  0  0  0  0  0  0  0  0  0
  -27.4169   -1.5263  -12.5274 C   0  0  0  0  0  0  0  0  0  0  0  0
  -26.0996   -1.4353  -13.0129 C   0  0  0  0  0  0  0  0  0  0  0  0
  -25.9284   -1.6466  -14.7645 Cl  0  0  0  0  0  0  0  0  0  0  0  0
  -24.9866   -1.2777  -12.1142 C   0  0  0  0  0  0  0  0  0  0  0  0
  -25.2800   -1.2738  -10.7249 C   0  0  0  0  0  0  0  0  0  0  0  0
  -27.8624   -2.0341   -8.2603 C   0  0  0  0  0  0  0  0  0  0  0  0
  -26.8073   -1.3999   -8.8963 O   0  0  0  0  0  0  0  0  0  0  0  0
  -28.4381   -1.6673  -13.4206 O   0  0  0  0  0  0  0  0  0  0  0  0
  -29.0066   -2.8575  -13.8332 C   0  0  0  0  0  0  0  0  0  0  0  0
  -22.7199   -2.3555  -12.5752 C   0  0  0  0  0  0  0  0  0  0  0  0
  -23.4799   -3.6690  -12.8606 C   0  0  0  0  0  0  0  0  0  0  0  0
  -22.6721   -4.5775  -13.5580 O   0  0  0  0  0  0  0  0  0  0  0  0
  -22.8796   -4.4653  -14.5226 H   0  0  0  0  0  0  0  0  0  0  0  0
 25 26  1  0  0  0
 26 18  1  0  0  0
 18 19  1  0  0  0
 18 24  2  0  0  0
 19 20  2  0  0  0
 20 27  1  0  0  0
 20 21  1  0  0  0
 27 28  1  0  0  0
 21 22  1  0  0  0
 21 23  2  0  0  0
 23  1  1  0  0  0
 23 24  1  0  0  0
  1 29  1  0  0  0
  1  2  1  0  0  0
 29 30  1  0  0  0
 30 31  1  0  0  0
 31 32  1  0  0  0
  2  3  1  0  0  0
  2 11  2  0  0  0
  3  4  2  0  0  0
  4  5  1  0  0  0
  5  6  1  0  0  0
  5 10  2  0  0  0
  6  7  2  0  0  0
  7  8  1  0  0  0
  8 12  1  0  0  0
  8  9  2  0  0  0
 12 13  1  0  0  0
 12 17  2  0  0  0
 13 14  2  0  0  0
 14 15  1  0  0  0
 15 16  1  0  0  0
 15 17  1  0  0  0
  9 10  1  0  0  0
 10 11  1  0  0  0
M  END
> <minimizedAffinity>
-5.47187

$$$$
