CHEMBL3929914


 34 38  0  0  0  0  0  0  0  0999 V2000
  -17.1159    2.1039  -15.4752 N   0  0  0  0  0  0  0  0  0  0  0  0
  -18.5551    1.9797  -15.4506 C   0  0  0  0  0  0  0  0  0  0  0  0
  -19.2442    3.1921  -15.5518 C   0  0  0  0  0  0  0  0  0  0  0  0
  -20.5228    3.3066  -15.0499 C   0  0  0  0  0  0  0  0  0  0  0  0
  -21.2136    2.2307  -14.5714 C   0  0  0  0  0  0  0  0  0  0  0  0
  -22.3560    2.5405  -13.9592 N   0  0  0  0  0  0  0  0  0  0  0  0
  -23.1443    1.5277  -13.5973 C   0  0  0  0  0  0  0  0  0  0  0  0
  -22.8509    0.2123  -13.9117 C   0  0  0  0  0  0  0  0  0  0  0  0
  -21.6306   -0.1292  -14.4517 N   0  0  0  0  0  0  0  0  0  0  0  0
  -20.7266    0.8995  -14.7410 C   0  0  0  0  0  0  0  0  0  0  0  0
  -19.3352    0.8120  -15.1476 C   0  0  0  0  0  0  0  0  0  0  0  0
  -23.9754   -0.7167  -13.7998 C   0  0  0  0  0  0  0  0  0  0  0  0
  -24.9265   -1.0881  -14.7897 C   0  0  0  0  0  0  0  0  0  0  0  0
  -26.0270   -1.6557  -14.2787 N   0  0  0  0  0  0  0  0  0  0  0  0
  -25.8234   -1.6041  -12.9559 N   0  0  0  0  0  0  0  0  0  0  0  0
  -24.6507   -0.9862  -12.6171 C   0  0  0  0  0  0  0  0  0  0  0  0
  -26.5623   -1.9406  -12.3401 H   0  0  0  0  0  0  0  0  0  0  0  0
  -15.3927   -0.2904  -13.1640 C   0  0  0  0  0  0  0  0  0  0  0  0
  -14.2889   -0.6744  -13.9262 C   0  0  0  0  0  0  0  0  0  0  0  0
  -14.1208   -0.1491  -15.2008 C   0  0  0  0  0  0  0  0  0  0  0  0
  -15.0190    0.8085  -15.6806 C   0  0  0  0  0  0  0  0  0  0  0  0
  -16.1384    1.2267  -14.9385 C   0  0  0  0  0  0  0  0  0  0  0  0
  -16.3267    0.6243  -13.6819 C   0  0  0  0  0  0  0  0  0  0  0  0
  -15.5558   -2.2388  -11.8567 C   0  0  0  0  0  0  0  0  0  0  0  0
  -15.6621   -0.8155  -11.9242 O   0  0  0  0  0  0  0  0  0  0  0  0
  -13.1051   -0.4813  -16.0572 O   0  0  0  0  0  0  0  0  0  0  0  0
  -13.3298   -0.1558  -17.4256 C   0  0  0  0  0  0  0  0  0  0  0  0
  -16.7367    3.5649  -15.4894 C   0  0  0  0  0  0  0  0  0  0  0  0
  -15.5002    4.0637  -16.2217 C   0  0  0  0  0  0  0  0  0  0  0  0
  -15.3341    4.2382  -17.5839 C   0  0  0  0  0  0  0  0  0  0  0  0
  -13.7982    4.9306  -17.9150 S   0  0  0  0  0  0  0  0  0  0  0  0
  -13.4536    4.9581  -16.2329 C   0  0  0  0  0  0  0  0  0  0  0  0
  -12.1496    5.4839  -15.7344 C   0  0  0  0  0  0  0  0  0  0  0  0
  -14.4156    4.5027  -15.4579 N   0  0  0  0  0  0  0  0  0  0  0  0
 24 25  1  0  0  0
 25 18  1  0  0  0
 18 19  1  0  0  0
 18 23  2  0  0  0
 19 20  2  0  0  0
 20 26  1  0  0  0
 20 21  1  0  0  0
 26 27  1  0  0  0
 21 22  2  0  0  0
 22  1  1  0  0  0
 22 23  1  0  0  0
  1 28  1  0  0  0
  1  2  1  0  0  0
 28 29  1  0  0  0
 29 30  2  0  0  0
 29 34  1  0  0  0
 30 31  1  0  0  0
 31 32  1  0  0  0
 32 33  1  0  0  0
 32 34  2  0  0  0
  2  3  1  0  0  0
  2 11  2  0  0  0
  3  4  2  0  0  0
  4  5  1  0  0  0
  5  6  1  0  0  0
  5 10  2  0  0  0
  6  7  2  0  0  0
  7  8  1  0  0  0
  8 12  1  0  0  0
  8  9  2  0  0  0
 12 13  1  0  0  0
 12 16  2  0  0  0
 13 14  2  0  0  0
 14 15  1  0  0  0
 15 16  1  0  0  0
 15 17  1  0  0  0
  9 10  1  0  0  0
 10 11  1  0  0  0
M  END
> <minimizedAffinity>
-9.08570

$$$$
