CHEMBL1448


 23 24  0  0  0  0  0  0  0  0999 V2000
  -28.2494   -5.9396   -6.1119 O   0  0  0  0  0  0  0  0  0  0  0  0
  -29.0810   -5.8752   -7.0172 C   0  0  0  0  0  0  0  0  0  0  0  0
  -29.6508   -4.7044   -7.4743 N   0  0  0  0  0  0  0  0  0  0  0  0
  -30.4377   -4.7929   -8.1204 H   0  0  0  0  0  0  0  0  0  0  0  0
  -29.5260   -7.1633   -7.6223 C   0  0  0  0  0  0  0  0  0  0  0  0
  -30.8260   -7.5860   -7.2867 C   0  0  0  0  0  0  0  0  0  0  0  0
  -31.3324   -8.7829   -7.7780 C   0  0  0  0  0  0  0  0  0  0  0  0
  -32.9243   -9.2734   -7.3519 Cl  0  0  0  0  0  0  0  0  0  0  0  0
  -30.5549   -9.5819   -8.6097 C   0  0  0  0  0  0  0  0  0  0  0  0
  -29.2595   -9.1806   -8.9487 C   0  0  0  0  0  0  0  0  0  0  0  0
  -28.7455   -7.9759   -8.4548 C   0  0  0  0  0  0  0  0  0  0  0  0
  -27.4707   -7.6103   -8.7935 O   0  0  0  0  0  0  0  0  0  0  0  0
  -27.0346   -8.3591   -9.2402 H   0  0  0  0  0  0  0  0  0  0  0  0
  -29.3009   -3.3958   -7.0564 C   0  0  0  0  0  0  0  0  0  0  0  0
  -28.4270   -2.5978   -7.8080 C   0  0  0  0  0  0  0  0  0  0  0  0
  -28.0727   -1.3144   -7.3931 C   0  0  0  0  0  0  0  0  0  0  0  0
  -28.6104   -0.8027   -6.2122 C   0  0  0  0  0  0  0  0  0  0  0  0
  -29.4989   -1.5682   -5.4461 C   0  0  0  0  0  0  0  0  0  0  0  0
  -29.8428   -2.8577   -5.8749 C   0  0  0  0  0  0  0  0  0  0  0  0
  -30.9157   -3.7843   -4.8820 Cl  0  0  0  0  0  0  0  0  0  0  0  0
  -28.2407    0.5508   -5.7834 N   0  0  0  0  0  0  0  0  0  0  0  0
  -28.3348    1.4665   -6.6136 O   0  0  0  0  0  0  0  0  0  0  0  0
  -27.8603    0.6975   -4.6144 O   0  0  0  0  0  0  0  0  0  0  0  0
  1  2  2  0  0  0
  2  3  1  0  0  0
  2  5  1  0  0  0
  3 14  1  0  0  0
  3  4  1  0  0  0
 14 15  1  0  0  0
 14 19  2  0  0  0
 15 16  2  0  0  0
 16 17  1  0  0  0
 17 21  1  0  0  0
 17 18  2  0  0  0
 21 22  2  0  0  0
 21 23  1  0  0  0
 18 19  1  0  0  0
 19 20  1  0  0  0
  5  6  1  0  0  0
  5 11  2  0  0  0
  6  7  2  0  0  0
  7  8  1  0  0  0
  7  9  1  0  0  0
  9 10  2  0  0  0
 10 11  1  0  0  0
 11 12  1  0  0  0
 12 13  1  0  0  0
M  CHG 1  21   1
M  CHG 1  23  -1
M  END
> <minimizedAffinity>
-7.98812

$$$$
