CHEMBL4065008


 34 39  0  0  0  0  0  0  0  0999 V2000
  -14.1401   -1.4682  -13.4060 C   0  0  0  0  0  0  0  0  0  0  0  0
  -15.5307   -1.5093  -13.4024 C   0  0  0  0  0  0  0  0  0  0  0  0
  -16.2798   -0.4445  -13.9055 C   0  0  0  0  0  0  0  0  0  0  0  0
  -15.5944    0.6825  -14.3885 C   0  0  0  0  0  0  0  0  0  0  0  0
  -14.1978    0.7485  -14.3960 C   0  0  0  0  0  0  0  0  0  0  0  0
  -13.8332    1.9695  -15.0188 C   0  0  0  0  0  0  0  0  0  0  0  0
  -14.9912    2.5763  -15.4481 C   0  0  0  0  0  0  0  0  0  0  0  0
  -16.0731    1.8330  -15.0138 N   0  0  0  0  0  0  0  0  0  0  0  0
  -17.4209    2.1443  -15.2691 C   0  0  0  0  0  0  0  0  0  0  0  0
  -17.7566    2.4987  -16.3849 O   0  0  0  0  0  0  0  0  0  0  0  0
  -18.1599    2.0777  -14.1102 N   0  0  0  0  0  0  0  0  0  0  0  0
  -13.4636   -0.3311  -13.8689 C   0  0  0  0  0  0  0  0  0  0  0  0
  -17.7071    2.3630  -13.2489 H   0  0  0  0  0  0  0  0  0  0  0  0
  -19.5136    2.3384  -14.1609 C   0  0  0  0  0  0  0  0  0  0  0  0
  -20.5581    1.4168  -13.9327 C   0  0  0  0  0  0  0  0  0  0  0  0
  -21.7063    2.1399  -14.1337 C   0  0  0  0  0  0  0  0  0  0  0  0
  -21.3711    3.4211  -14.4518 O   0  0  0  0  0  0  0  0  0  0  0  0
  -19.9893    3.5643  -14.3925 N   0  0  0  0  0  0  0  0  0  0  0  0
  -23.1136    1.5913  -14.0081 C   0  0  0  0  0  0  0  0  0  0  0  0
  -23.4327    0.6848  -12.8395 C   0  0  0  0  0  0  0  0  0  0  0  0
  -23.3288    0.1064  -14.2086 C   0  0  0  0  0  0  0  0  0  0  0  0
  -13.3373   -2.4701  -12.9162 O   0  0  0  0  0  0  0  0  0  0  0  0
  -12.9044   -7.5737  -15.1984 C   0  0  0  0  0  0  0  0  0  0  0  0
  -13.7883   -7.7963  -13.9954 C   0  0  0  0  0  0  0  0  0  0  0  0
  -14.2922   -8.8918  -13.7631 O   0  0  0  0  0  0  0  0  0  0  0  0
  -13.9413   -6.7226  -13.1567 N   0  0  0  0  0  0  0  0  0  0  0  0
  -14.6349   -6.8342  -11.8666 C   0  0  0  0  0  0  0  0  0  0  0  0
  -14.5144   -5.4417  -11.2971 C   0  0  0  0  0  0  0  0  0  0  0  0
  -14.9160   -5.0319  -10.0896 N   0  0  0  0  0  0  0  0  0  0  0  0
  -14.7357   -3.7152   -9.8675 C   0  0  0  0  0  0  0  0  0  0  0  0
  -14.2233   -2.8135  -10.7327 N   0  0  0  0  0  0  0  0  0  0  0  0
  -13.8143   -3.3042  -11.9212 C   0  0  0  0  0  0  0  0  0  0  0  0
  -13.9389   -4.6182  -12.2354 C   0  0  0  0  0  0  0  0  0  0  0  0
  -13.5526   -5.3490  -13.4532 C   0  0  0  0  0  0  0  0  0  0  0  0
 23 24  1  0  0  0
 24 25  2  0  0  0
 24 26  1  0  0  0
 26 27  1  0  0  0
 26 34  1  0  0  0
 27 28  1  0  0  0
 28 29  1  0  0  0
 28 33  2  0  0  0
 29 30  2  0  0  0
 30 31  1  0  0  0
 31 32  2  0  0  0
 32 22  1  0  0  0
 32 33  1  0  0  0
 22  1  1  0  0  0
  1  2  1  0  0  0
  1 12  2  0  0  0
  2  3  2  0  0  0
  3  4  1  0  0  0
  4  5  2  0  0  0
  4  8  1  0  0  0
  5  6  1  0  0  0
  5 12  1  0  0  0
  6  7  2  0  0  0
  7  8  1  0  0  0
  8  9  1  0  0  0
  9 10  2  0  0  0
  9 11  1  0  0  0
 11 14  1  0  0  0
 11 13  1  0  0  0
 14 15  1  0  0  0
 14 18  2  0  0  0
 15 16  2  0  0  0
 16 19  1  0  0  0
 16 17  1  0  0  0
 19 20  1  0  0  0
 19 21  1  0  0  0
 20 21  1  0  0  0
 17 18  1  0  0  0
 33 34  1  0  0  0
M  END
> <minimizedAffinity>
-9.86627

$$$$
