CHEMBL4082724


 53 59  0  0  0  0  0  0  0  0999 V2000
  -19.1965    2.1989  -15.0860 C   0  0  0  0  0  0  0  0  0  0  0  0
  -20.2357    2.8776  -14.4504 C   0  0  0  0  0  0  0  0  0  0  0  0
  -21.3799    2.1872  -14.0220 C   0  0  0  0  0  0  0  0  0  0  0  0
  -21.5128    0.8106  -14.2366 C   0  0  0  0  0  0  0  0  0  0  0  0
  -20.4763    0.1320  -14.8829 C   0  0  0  0  0  0  0  0  0  0  0  0
  -19.3370    0.8251  -15.3093 C   0  0  0  0  0  0  0  0  0  0  0  0
  -18.3786    0.1272  -15.9364 F   0  0  0  0  0  0  0  0  0  0  0  0
  -22.6757    0.0891  -13.8896 N   0  0  0  0  0  0  0  0  0  0  0  0
  -22.9571   -0.4689  -12.6571 C   0  0  0  0  0  0  0  0  0  0  0  0
  -22.1772   -0.6453  -11.7352 O   0  0  0  0  0  0  0  0  0  0  0  0
  -23.3649   -0.0975  -14.6127 H   0  0  0  0  0  0  0  0  0  0  0  0
  -24.3987   -0.9477  -12.5113 C   0  0  0  0  0  0  0  0  0  0  0  0
  -25.0481   -1.1673  -13.6226 N   0  0  0  0  0  0  0  0  0  0  0  0
  -26.3836   -1.5951  -13.5434 C   0  0  0  0  0  0  0  0  0  0  0  0
  -27.0756   -1.7384  -14.7522 C   0  0  0  0  0  0  0  0  0  0  0  0
  -28.4228   -2.0981  -14.7703 C   0  0  0  0  0  0  0  0  0  0  0  0
  -29.0913   -2.3208  -13.5720 C   0  0  0  0  0  0  0  0  0  0  0  0
  -28.4074   -2.2019  -12.3589 C   0  0  0  0  0  0  0  0  0  0  0  0
  -27.0435   -1.8540  -12.3267 C   0  0  0  0  0  0  0  0  0  0  0  0
  -26.3163   -1.6615  -11.1152 N   0  0  0  0  0  0  0  0  0  0  0  0
  -25.0295   -1.1190  -11.1390 C   0  0  0  0  0  0  0  0  0  0  0  0
  -24.3869   -0.7788  -10.1527 O   0  0  0  0  0  0  0  0  0  0  0  0
  -26.9505   -1.8955   -9.8637 C   0  0  0  0  0  0  0  0  0  0  0  0
  -27.2871   -3.2028   -9.4832 C   0  0  0  0  0  0  0  0  0  0  0  0
  -27.9344   -3.4403   -8.2690 C   0  0  0  0  0  0  0  0  0  0  0  0
  -28.2701   -2.3695   -7.4494 C   0  0  0  0  0  0  0  0  0  0  0  0
  -28.9018   -2.5978   -6.2906 F   0  0  0  0  0  0  0  0  0  0  0  0
  -27.9665   -1.0640   -7.8192 C   0  0  0  0  0  0  0  0  0  0  0  0
  -27.3027   -0.8243   -9.0261 C   0  0  0  0  0  0  0  0  0  0  0  0
  -18.1276    2.9699  -15.5033 O   0  0  0  0  0  0  0  0  0  0  0  0
  -14.9787    4.0098  -18.2672 C   0  0  0  0  0  0  0  0  0  0  0  0
  -15.9947    3.8027  -17.3113 C   0  0  0  0  0  0  0  0  0  0  0  0
  -15.8319    2.8917  -16.2326 C   0  0  0  0  0  0  0  0  0  0  0  0
  -16.8403    2.4975  -15.3145 C   0  0  0  0  0  0  0  0  0  0  0  0
  -16.5243    1.6617  -14.2432 C   0  0  0  0  0  0  0  0  0  0  0  0
  -15.2488    1.1507  -14.1762 C   0  0  0  0  0  0  0  0  0  0  0  0
  -14.2811    1.4532  -15.0569 N   0  0  0  0  0  0  0  0  0  0  0  0
  -14.5727    2.3026  -16.0511 C   0  0  0  0  0  0  0  0  0  0  0  0
  -13.5625    2.5704  -16.9505 C   0  0  0  0  0  0  0  0  0  0  0  0
  -13.7434    3.3582  -18.0973 C   0  0  0  0  0  0  0  0  0  0  0  0
  -14.8067    6.1903  -19.2559 C   0  0  0  0  0  0  0  0  0  0  0  0
  -15.1252    4.8050  -19.3746 O   0  0  0  0  0  0  0  0  0  0  0  0
  -12.7514    3.4762  -19.0696 O   0  0  0  0  0  0  0  0  0  0  0  0
  -12.7377    2.3745  -19.9974 C   0  0  0  0  0  0  0  0  0  0  0  0
  -11.6242    1.3409  -19.7956 C   0  0  0  0  0  0  0  0  0  0  0  0
  -12.0007    0.0776  -20.6099 C   0  0  0  0  0  0  0  0  0  0  0  0
  -12.0496   -1.1815  -19.8581 N   0  0  0  0  0  0  0  0  0  0  0  0
  -13.2715   -1.3299  -19.0488 C   0  0  0  0  0  0  0  0  0  0  0  0
  -13.2691   -2.6681  -18.2687 C   0  0  0  0  0  0  0  0  0  0  0  0
  -13.1043   -3.8825  -19.0931 N   0  0  0  0  0  0  0  0  0  0  0  0
  -14.3302   -4.2253  -19.8072 C   0  0  0  0  0  0  0  0  0  0  0  0
  -11.9653   -3.6943  -20.0136 C   0  0  0  0  0  0  0  0  0  0  0  0
  -11.9475   -2.3440  -20.7732 C   0  0  0  0  0  0  0  0  0  0  0  0
 41 42  1  0  0  0
 42 31  1  0  0  0
 31 32  1  0  0  0
 31 40  2  0  0  0
 32 33  2  0  0  0
 33 34  1  0  0  0
 33 38  1  0  0  0
 34 30  1  0  0  0
 34 35  2  0  0  0
 30  1  1  0  0  0
  1  2  1  0  0  0
  1  6  2  0  0  0
  2  3  2  0  0  0
  3  4  1  0  0  0
  4  8  1  0  0  0
  4  5  2  0  0  0
  8  9  1  0  0  0
  8 11  1  0  0  0
  9 10  2  0  0  0
  9 12  1  0  0  0
 12 13  2  0  0  0
 12 21  1  0  0  0
 13 14  1  0  0  0
 14 15  1  0  0  0
 14 19  2  0  0  0
 15 16  2  0  0  0
 16 17  1  0  0  0
 17 18  2  0  0  0
 18 19  1  0  0  0
 19 20  1  0  0  0
 20 23  1  0  0  0
 20 21  1  0  0  0
 23 24  1  0  0  0
 23 29  2  0  0  0
 24 25  2  0  0  0
 25 26  1  0  0  0
 26 27  1  0  0  0
 26 28  2  0  0  0
 28 29  1  0  0  0
 21 22  2  0  0  0
  5  6  1  0  0  0
  6  7  1  0  0  0
 35 36  1  0  0  0
 36 37  2  0  0  0
 37 38  1  0  0  0
 38 39  2  0  0  0
 39 40  1  0  0  0
 40 43  1  0  0  0
 43 44  1  0  0  0
 44 45  1  0  0  0
 45 46  1  0  0  0
 46 47  1  0  0  0
 47 48  1  0  0  0
 47 53  1  0  0  0
 48 49  1  0  0  0
 49 50  1  0  0  0
 50 51  1  0  0  0
 50 52  1  0  0  0
 52 53  1  0  0  0
M  END
> <minimizedAffinity>
-6.81749

$$$$
