CHEMBL3890378


 34 38  0  0  0  0  0  0  0  0999 V2000
  -28.6092   -2.5099   -8.2848 N   0  0  0  0  0  0  0  0  0  0  0  0
  -27.7875   -2.1339   -9.4148 C   0  0  0  0  0  0  0  0  0  0  0  0
  -26.5751   -1.6125   -9.0677 C   0  0  0  0  0  0  0  0  0  0  0  0
  -25.7515   -1.2858  -10.0623 C   0  0  0  0  0  0  0  0  0  0  0  0
  -26.0554   -1.3752  -11.3582 C   0  0  0  0  0  0  0  0  0  0  0  0
  -25.6475   -0.2237  -11.7001 N   0  0  0  0  0  0  0  0  0  0  0  0
  -24.4401   -0.2456  -12.1257 C   0  0  0  0  0  0  0  0  0  0  0  0
  -24.4197   -0.5591  -13.3773 C   0  0  0  0  0  0  0  0  0  0  0  0
  -25.8162   -1.4785  -13.5388 N   0  0  0  0  0  0  0  0  0  0  0  0
  -26.8928   -1.8671  -12.2127 C   0  0  0  0  0  0  0  0  0  0  0  0
  -27.9981   -2.2755  -10.9090 C   0  0  0  0  0  0  0  0  0  0  0  0
  -22.8401    0.2878  -13.7885 C   0  0  0  0  0  0  0  0  0  0  0  0
  -21.5139   -0.2105  -14.6582 C   0  0  0  0  0  0  0  0  0  0  0  0
  -20.6693    0.7378  -15.1531 N   0  0  0  0  0  0  0  0  0  0  0  0
  -21.2020    1.9029  -14.7471 N   0  0  0  0  0  0  0  0  0  0  0  0
  -20.6095    3.2061  -15.2215 C   0  0  0  0  0  0  0  0  0  0  0  0
  -22.4094    1.6350  -13.9311 C   0  0  0  0  0  0  0  0  0  0  0  0
  -28.8103   -0.3310   -5.2100 C   0  0  0  0  0  0  0  0  0  0  0  0
  -28.4995   -1.2553   -4.2523 C   0  0  0  0  0  0  0  0  0  0  0  0
  -28.1104   -2.5457   -4.6146 C   0  0  0  0  0  0  0  0  0  0  0  0
  -28.0055   -2.8498   -5.9471 C   0  0  0  0  0  0  0  0  0  0  0  0
  -28.4951   -2.0534   -6.9445 C   0  0  0  0  0  0  0  0  0  0  0  0
  -28.7433   -0.7356   -6.5328 C   0  0  0  0  0  0  0  0  0  0  0  0
  -30.4140    1.3384   -5.6904 C   0  0  0  0  0  0  0  0  0  0  0  0
  -29.2288    0.9533   -5.0069 O   0  0  0  0  0  0  0  0  0  0  0  0
  -27.8647   -3.5423   -3.7200 O   0  0  0  0  0  0  0  0  0  0  0  0
  -27.6272   -4.8070   -4.3222 C   0  0  0  0  0  0  0  0  0  0  0  0
  -29.5311   -3.7187   -8.5570 C   0  0  0  0  0  0  0  0  0  0  0  0
  -29.3660   -4.9710   -7.6952 C   0  0  0  0  0  0  0  0  0  0  0  0
  -30.3193   -5.2667   -6.7354 C   0  0  0  0  0  0  0  0  0  0  0  0
  -30.3903   -6.4541   -6.0925 N   0  0  0  0  0  0  0  0  0  0  0  0
  -29.4677   -7.3669   -6.4623 C   0  0  0  0  0  0  0  0  0  0  0  0
  -28.5162   -7.1075   -7.4320 C   0  0  0  0  0  0  0  0  0  0  0  0
  -28.4141   -5.8979   -8.0418 N   0  0  0  0  0  0  0  0  0  0  0  0
 24 25  1  0  0  0
 25 18  1  0  0  0
 18 19  1  0  0  0
 18 23  2  0  0  0
 19 20  2  0  0  0
 20 26  1  0  0  0
 20 21  1  0  0  0
 26 27  1  0  0  0
 21 22  2  0  0  0
 22  1  1  0  0  0
 22 23  1  0  0  0
  1 28  1  0  0  0
  1  2  1  0  0  0
 28 29  1  0  0  0
 29 30  1  0  0  0
 29 34  2  0  0  0
 30 31  2  0  0  0
 31 32  1  0  0  0
 32 33  2  0  0  0
 33 34  1  0  0  0
  2  3  1  0  0  0
  2 11  2  0  0  0
  3  4  2  0  0  0
  4  5  1  0  0  0
  5  6  1  0  0  0
  5 10  2  0  0  0
  6  7  2  0  0  0
  7  8  1  0  0  0
  8 12  1  0  0  0
  8  9  2  0  0  0
 12 13  1  0  0  0
 12 17  2  0  0  0
 13 14  2  0  0  0
 14 15  1  0  0  0
 15 16  1  0  0  0
 15 17  1  0  0  0
  9 10  1  0  0  0
 10 11  1  0  0  0
M  END
> <minimizedAffinity>
-7.96022

$$$$
