CHEMBL380465


 24 27  0  0  0  0  0  0  0  0999 V2000
  -29.3362   -5.3741   -7.0081 C   0  0  0  0  0  0  0  0  0  0  0  0
  -29.0360   -6.2140   -6.0018 C   0  0  0  0  0  0  0  0  0  0  0  0
  -28.0695   -6.0864   -4.8837 C   0  0  0  0  0  0  0  0  0  0  0  0
  -27.4117   -5.1360   -4.5138 O   0  0  0  0  0  0  0  0  0  0  0  0
  -28.0800   -7.3475   -4.3115 N   0  0  0  0  0  0  0  0  0  0  0  0
  -28.9779   -8.2312   -4.8543 N   0  0  0  0  0  0  0  0  0  0  0  0
  -29.5813   -7.5939   -5.8329 C   0  0  0  0  0  0  0  0  0  0  0  0
  -27.5364   -7.5954   -3.4928 H   0  0  0  0  0  0  0  0  0  0  0  0
  -26.9587   -1.6731   -9.2270 C   0  0  0  0  0  0  0  0  0  0  0  0
  -27.7687   -2.3851   -8.2656 N   0  0  0  0  0  0  0  0  0  0  0  0
  -28.0880   -3.7101   -8.3579 C   0  0  0  0  0  0  0  0  0  0  0  0
  -28.8702   -4.0471   -7.2793 C   0  0  0  0  0  0  0  0  0  0  0  0
  -29.0148   -2.8633   -6.4618 C   0  0  0  0  0  0  0  0  0  0  0  0
  -29.6575   -2.5145   -5.2435 C   0  0  0  0  0  0  0  0  0  0  0  0
  -30.7109   -3.7442   -4.2498 Br  0  0  0  0  0  0  0  0  0  0  0  0
  -29.5502   -1.2125   -4.7267 C   0  0  0  0  0  0  0  0  0  0  0  0
  -28.8246   -0.2400   -5.3998 C   0  0  0  0  0  0  0  0  0  0  0  0
  -28.1931   -0.5373   -6.6056 C   0  0  0  0  0  0  0  0  0  0  0  0
  -28.2982   -1.8434   -7.1152 C   0  0  0  0  0  0  0  0  0  0  0  0
  -30.6710   -8.1669   -6.5862 C   0  0  0  0  0  0  0  0  0  0  0  0
  -31.9235   -7.7743   -6.4665 N   0  0  0  0  0  0  0  0  0  0  0  0
  -32.7374   -8.5622   -7.2554 C   0  0  0  0  0  0  0  0  0  0  0  0
  -32.0923   -9.5321   -7.9895 C   0  0  0  0  0  0  0  0  0  0  0  0
  -30.4101   -9.4767   -7.6681 S   0  0  0  0  0  0  0  0  0  0  0  0
  9 10  1  0  0  0
 10 11  1  0  0  0
 10 19  1  0  0  0
 11 12  2  0  0  0
 12  1  1  0  0  0
 12 13  1  0  0  0
  1  2  2  0  0  0
  2  3  1  0  0  0
  2  7  1  0  0  0
  3  4  2  0  0  0
  3  5  1  0  0  0
  5  6  1  0  0  0
  5  8  1  0  0  0
  6  7  2  0  0  0
  7 20  1  0  0  0
 20 21  2  0  0  0
 20 24  1  0  0  0
 21 22  1  0  0  0
 22 23  2  0  0  0
 23 24  1  0  0  0
 13 14  1  0  0  0
 13 19  2  0  0  0
 14 15  1  0  0  0
 14 16  2  0  0  0
 16 17  1  0  0  0
 17 18  2  0  0  0
 18 19  1  0  0  0
M  END
> <minimizedAffinity>
-8.30201

$$$$
