CHEMBL207772


 32 35  0  0  0  0  0  0  0  0999 V2000
  -21.9952   11.6776  -18.6817 C   0  0  0  0  0  0  0  0  0  0  0  0
  -21.5158   11.9733  -17.4941 N   0  0  0  0  0  0  0  0  0  0  0  0
  -22.5483   11.7685  -16.5984 N   0  0  0  0  0  0  0  0  0  0  0  0
  -23.5762   11.3371  -17.3006 C   0  0  0  0  0  0  0  0  0  0  0  0
  -23.2971   11.2696  -18.6333 O   0  0  0  0  0  0  0  0  0  0  0  0
  -24.8634   10.8205  -16.8460 C   0  0  0  0  0  0  0  0  0  0  0  0
  -25.3313    9.6747  -17.5042 C   0  0  0  0  0  0  0  0  0  0  0  0
  -26.5347    9.0867  -17.3028 N   0  0  0  0  0  0  0  0  0  0  0  0
  -27.3355    9.6741  -16.4039 C   0  0  0  0  0  0  0  0  0  0  0  0
  -26.9751   10.7955  -15.6831 C   0  0  0  0  0  0  0  0  0  0  0  0
  -25.7072   11.3845  -15.8545 C   0  0  0  0  0  0  0  0  0  0  0  0
  -25.3444   12.6200  -15.0354 C   0  0  0  0  0  0  0  0  0  0  0  0
  -24.6361   12.3335  -13.6930 C   0  0  0  0  0  0  0  0  0  0  0  0
  -25.5227   12.4545  -12.4795 C   0  0  0  0  0  0  0  0  0  0  0  0
  -26.9102   12.3349  -12.5978 C   0  0  0  0  0  0  0  0  0  0  0  0
  -27.6847   12.3929  -11.4495 C   0  0  0  0  0  0  0  0  0  0  0  0
  -27.1782   12.5550  -10.2095 N   0  0  0  0  0  0  0  0  0  0  0  0
  -25.8360   12.6590  -10.1142 C   0  0  0  0  0  0  0  0  0  0  0  0
  -24.9777   12.6140  -11.2031 C   0  0  0  0  0  0  0  0  0  0  0  0
  -21.3831   11.6477  -19.8816 N   0  0  0  0  0  0  0  0  0  0  0  0
  -21.9182   11.2081  -20.6230 H   0  0  0  0  0  0  0  0  0  0  0  0
  -17.2216   11.1581  -20.4322 C   0  0  0  0  0  0  0  0  0  0  0  0
  -18.1062   10.2977  -21.0740 C   0  0  0  0  0  0  0  0  0  0  0  0
  -19.4853   10.4510  -20.8982 C   0  0  0  0  0  0  0  0  0  0  0  0
  -19.9998   11.4256  -20.0323 C   0  0  0  0  0  0  0  0  0  0  0  0
  -19.1022   12.2506  -19.3500 C   0  0  0  0  0  0  0  0  0  0  0  0
  -17.7249   12.1048  -19.5373 C   0  0  0  0  0  0  0  0  0  0  0  0
  -15.8682   11.1665  -20.5738 O   0  0  0  0  0  0  0  0  0  0  0  0
  -15.7718    9.2639  -19.2352 F   0  0  0  0  0  0  0  0  0  0  0  0
  -15.1077   10.0639  -20.0963 C   0  0  0  0  0  0  0  0  0  0  0  0
  -13.9832   10.5094  -19.4978 F   0  0  0  0  0  0  0  0  0  0  0  0
  -14.7487    9.3023  -21.1564 F   0  0  0  0  0  0  0  0  0  0  0  0
 29 30  1  0  0  0
 30 31  1  0  0  0
 30 32  1  0  0  0
 30 28  1  0  0  0
 28 22  1  0  0  0
 22 23  1  0  0  0
 22 27  2  0  0  0
 23 24  2  0  0  0
 24 25  1  0  0  0
 25 20  1  0  0  0
 25 26  2  0  0  0
 20  1  1  0  0  0
 20 21  1  0  0  0
  1  2  2  0  0  0
  1  5  1  0  0  0
  2  3  1  0  0  0
  3  4  2  0  0  0
  4  6  1  0  0  0
  4  5  1  0  0  0
  6  7  1  0  0  0
  6 11  2  0  0  0
  7  8  2  0  0  0
  8  9  1  0  0  0
  9 10  2  0  0  0
 10 11  1  0  0  0
 11 12  1  0  0  0
 12 13  1  0  0  0
 13 14  1  0  0  0
 14 15  1  0  0  0
 14 19  2  0  0  0
 15 16  2  0  0  0
 16 17  1  0  0  0
 17 18  2  0  0  0
 18 19  1  0  0  0
 26 27  1  0  0  0
M  END
> <minimizedAffinity>
-4.55953

$$$$
