CHEMBL3913860


 37 41  0  0  0  0  0  0  0  0999 V2000
  -13.8672    0.6836  -17.2859 C   0  0  0  0  0  0  0  0  0  0  0  0
  -15.1042    1.0475  -16.7538 C   0  0  0  0  0  0  0  0  0  0  0  0
  -15.3860    0.8630  -15.3691 C   0  0  0  0  0  0  0  0  0  0  0  0
  -16.6109    1.1441  -14.7232 C   0  0  0  0  0  0  0  0  0  0  0  0
  -16.7772    0.8955  -13.4085 N   0  0  0  0  0  0  0  0  0  0  0  0
  -15.7462    0.3903  -12.7330 C   0  0  0  0  0  0  0  0  0  0  0  0
  -14.5442    0.1072  -13.2405 N   0  0  0  0  0  0  0  0  0  0  0  0
  -14.3847    0.3473  -14.5403 C   0  0  0  0  0  0  0  0  0  0  0  0
  -13.1409    0.0701  -15.0746 C   0  0  0  0  0  0  0  0  0  0  0  0
  -12.8528    0.2678  -16.4231 C   0  0  0  0  0  0  0  0  0  0  0  0
  -13.7083   -0.3609  -19.3867 C   0  0  0  0  0  0  0  0  0  0  0  0
  -13.7160    0.8586  -18.6380 O   0  0  0  0  0  0  0  0  0  0  0  0
  -17.6763    1.7308  -15.4549 N   0  0  0  0  0  0  0  0  0  0  0  0
  -17.6332    1.4253  -16.4214 H   0  0  0  0  0  0  0  0  0  0  0  0
  -19.0083    1.9290  -15.0230 C   0  0  0  0  0  0  0  0  0  0  0  0
  -19.5490    3.1985  -14.8000 C   0  0  0  0  0  0  0  0  0  0  0  0
  -20.8684    3.3682  -14.3672 C   0  0  0  0  0  0  0  0  0  0  0  0
  -21.6925    2.2585  -14.1932 C   0  0  0  0  0  0  0  0  0  0  0  0
  -23.3008    2.5286  -13.6315 Cl  0  0  0  0  0  0  0  0  0  0  0  0
  -21.1930    0.9835  -14.4791 C   0  0  0  0  0  0  0  0  0  0  0  0
  -22.1633   -0.4396  -14.3322 Cl  0  0  0  0  0  0  0  0  0  0  0  0
  -19.8653    0.8258  -14.9020 C   0  0  0  0  0  0  0  0  0  0  0  0
  -11.6030    0.0784  -16.9358 O   0  0  0  0  0  0  0  0  0  0  0  0
  -10.7158   -0.7064  -16.1366 C   0  0  0  0  0  0  0  0  0  0  0  0
  -11.1445   -2.1291  -16.2775 C   0  0  0  0  0  0  0  0  0  0  0  0
  -11.5181   -2.8903  -15.2710 N   0  0  0  0  0  0  0  0  0  0  0  0
  -11.8842   -4.1429  -15.7353 C   0  0  0  0  0  0  0  0  0  0  0  0
  -11.7419   -4.3201  -17.0992 C   0  0  0  0  0  0  0  0  0  0  0  0
  -11.1539   -2.8873  -17.8231 S   0  0  0  0  0  0  0  0  0  0  0  0
  -12.3923   -5.1461  -14.7441 C   0  0  0  0  0  0  0  0  0  0  0  0
  -13.8615   -5.1636  -14.6983 N   0  0  0  0  0  0  0  0  0  0  0  0
  -14.3906   -6.4117  -14.1097 C   0  0  0  0  0  0  0  0  0  0  0  0
  -15.9344   -6.3820  -14.0082 C   0  0  0  0  0  0  0  0  0  0  0  0
  -16.4839   -5.2305  -13.2659 N   0  0  0  0  0  0  0  0  0  0  0  0
  -16.2628   -5.3655  -11.8281 C   0  0  0  0  0  0  0  0  0  0  0  0
  -15.8872   -3.9877  -13.7946 C   0  0  0  0  0  0  0  0  0  0  0  0
  -14.3453   -4.0089  -13.9160 C   0  0  0  0  0  0  0  0  0  0  0  0
 11 12  1  0  0  0
 12  1  1  0  0  0
  1  2  1  0  0  0
  1 10  2  0  0  0
  2  3  2  0  0  0
  3  4  1  0  0  0
  3  8  1  0  0  0
  4 13  1  0  0  0
  4  5  2  0  0  0
 13 15  1  0  0  0
 13 14  1  0  0  0
 15 16  1  0  0  0
 15 22  2  0  0  0
 16 17  2  0  0  0
 17 18  1  0  0  0
 18 19  1  0  0  0
 18 20  2  0  0  0
 20 21  1  0  0  0
 20 22  1  0  0  0
  5  6  1  0  0  0
  6  7  2  0  0  0
  7  8  1  0  0  0
  8  9  2  0  0  0
  9 10  1  0  0  0
 10 23  1  0  0  0
 23 24  1  0  0  0
 24 25  1  0  0  0
 25 26  2  0  0  0
 25 29  1  0  0  0
 26 27  1  0  0  0
 27 30  1  0  0  0
 27 28  2  0  0  0
 30 31  1  0  0  0
 31 32  1  0  0  0
 31 37  1  0  0  0
 32 33  1  0  0  0
 33 34  1  0  0  0
 34 35  1  0  0  0
 34 36  1  0  0  0
 36 37  1  0  0  0
 28 29  1  0  0  0
M  END
> <minimizedAffinity>
-7.28186

$$$$
