CHEMBL3919045


 31 34  0  0  0  0  0  0  0  0999 V2000
  -29.9248   -6.5414   -7.0737 C   0  0  0  0  0  0  0  0  0  0  0  0
  -30.6337   -7.5785   -7.5443 N   0  0  0  0  0  0  0  0  0  0  0  0
  -30.3576   -8.7950   -7.0189 C   0  0  0  0  0  0  0  0  0  0  0  0
  -29.4062   -9.0145   -6.0469 C   0  0  0  0  0  0  0  0  0  0  0  0
  -28.7553   -7.8768   -5.6031 C   0  0  0  0  0  0  0  0  0  0  0  0
  -28.9935   -6.6575   -6.1145 N   0  0  0  0  0  0  0  0  0  0  0  0
  -27.6856   -7.9517   -4.5459 C   0  0  0  0  0  0  0  0  0  0  0  0
  -27.8285   -9.2346   -3.7356 C   0  0  0  0  0  0  0  0  0  0  0  0
  -27.9113  -10.3645   -4.6578 N   0  0  0  0  0  0  0  0  0  0  0  0
  -26.9460  -11.3627   -4.8646 C   0  0  0  0  0  0  0  0  0  0  0  0
  -27.2335  -12.3270   -5.5769 O   0  0  0  0  0  0  0  0  0  0  0  0
  -29.1311  -10.3730   -5.4681 C   0  0  0  0  0  0  0  0  0  0  0  0
  -25.6229  -11.2284   -4.2553 C   0  0  0  0  0  0  0  0  0  0  0  0
  -25.1317  -11.5938   -3.0124 C   0  0  0  0  0  0  0  0  0  0  0  0
  -23.7485  -11.2873   -2.8381 C   0  0  0  0  0  0  0  0  0  0  0  0
  -23.2365  -10.6152   -3.9205 C   0  0  0  0  0  0  0  0  0  0  0  0
  -24.4031  -10.3932   -5.1480 S   0  0  0  0  0  0  0  0  0  0  0  0
  -30.1794   -5.2783   -7.6200 N   0  0  0  0  0  0  0  0  0  0  0  0
  -30.2078   -5.3842   -8.6269 H   0  0  0  0  0  0  0  0  0  0  0  0
  -29.1981   -2.3475   -5.5033 C   0  0  0  0  0  0  0  0  0  0  0  0
  -29.8138   -3.5324   -5.9294 C   0  0  0  0  0  0  0  0  0  0  0  0
  -29.5630   -4.0824   -7.1939 C   0  0  0  0  0  0  0  0  0  0  0  0
  -28.6257   -3.4630   -8.0202 C   0  0  0  0  0  0  0  0  0  0  0  0
  -28.0261   -2.2578   -7.6347 C   0  0  0  0  0  0  0  0  0  0  0  0
  -28.2903   -1.7038   -6.3635 C   0  0  0  0  0  0  0  0  0  0  0  0
  -29.7911   -2.5968   -3.2054 C   0  0  0  0  0  0  0  0  0  0  0  0
  -29.5103   -1.7456   -4.3107 O   0  0  0  0  0  0  0  0  0  0  0  0
  -27.1282   -1.5882   -8.4342 O   0  0  0  0  0  0  0  0  0  0  0  0
  -27.0753   -2.0269   -9.7879 C   0  0  0  0  0  0  0  0  0  0  0  0
  -27.6651   -0.5047   -6.1061 O   0  0  0  0  0  0  0  0  0  0  0  0
  -28.4286    0.6738   -6.3284 C   0  0  0  0  0  0  0  0  0  0  0  0
 26 27  1  0  0  0
 27 20  1  0  0  0
 20 21  1  0  0  0
 20 25  2  0  0  0
 21 22  2  0  0  0
 22 18  1  0  0  0
 22 23  1  0  0  0
 18  1  1  0  0  0
 18 19  1  0  0  0
  1  2  1  0  0  0
  1  6  2  0  0  0
  2  3  2  0  0  0
  3  4  1  0  0  0
  4  5  2  0  0  0
  4 12  1  0  0  0
  5  6  1  0  0  0
  5  7  1  0  0  0
  7  8  1  0  0  0
  8  9  1  0  0  0
  9 10  1  0  0  0
  9 12  1  0  0  0
 10 11  2  0  0  0
 10 13  1  0  0  0
 13 14  2  0  0  0
 13 17  1  0  0  0
 14 15  1  0  0  0
 15 16  2  0  0  0
 16 17  1  0  0  0
 23 24  2  0  0  0
 24 28  1  0  0  0
 24 25  1  0  0  0
 28 29  1  0  0  0
 25 30  1  0  0  0
 30 31  1  0  0  0
M  END
> <minimizedAffinity>
-7.78605

$$$$
