CHEMBL1097190


 28 31  0  0  0  0  0  0  0  0999 V2000
  -13.9972    0.7099  -16.5685 N   0  0  0  0  0  0  0  0  0  0  0  0
  -15.1105    1.6561  -16.6545 C   0  0  0  0  0  0  0  0  0  0  0  0
  -14.7482    2.9709  -15.9379 C   0  0  0  0  0  0  0  0  0  0  0  0
  -15.8538    4.0202  -16.1594 C   0  0  0  0  0  0  0  0  0  0  0  0
  -17.1838    3.4353  -15.8080 C   0  0  0  0  0  0  0  0  0  0  0  0
  -18.2779    4.1475  -15.4724 N   0  0  0  0  0  0  0  0  0  0  0  0
  -19.2151    3.2423  -15.1467 C   0  0  0  0  0  0  0  0  0  0  0  0
  -20.4947    3.5148  -14.6947 C   0  0  0  0  0  0  0  0  0  0  0  0
  -21.3280    2.4379  -14.3820 C   0  0  0  0  0  0  0  0  0  0  0  0
  -20.8834    1.0901  -14.5244 C   0  0  0  0  0  0  0  0  0  0  0  0
  -19.5634    0.8457  -14.9920 C   0  0  0  0  0  0  0  0  0  0  0  0
  -18.7488    1.9530  -15.2902 C   0  0  0  0  0  0  0  0  0  0  0  0
  -17.4369    2.0726  -15.7353 C   0  0  0  0  0  0  0  0  0  0  0  0
  -16.3995    1.0239  -16.0397 C   0  0  0  0  0  0  0  0  0  0  0  0
  -13.1138    1.1648  -16.8967 H   0  0  0  0  0  0  0  0  0  0  0  0
  -14.1866   -0.1028  -17.1981 H   0  0  0  0  0  0  0  0  0  0  0  0
  -18.3619    5.1870  -15.4308 H   0  0  0  0  0  0  0  0  0  0  0  0
  -21.7084    0.0399  -14.2164 O   0  0  0  0  0  0  0  0  0  0  0  0
  -23.0000    0.2079  -13.7312 C   0  0  0  0  0  0  0  0  0  0  0  0
  -23.9869   -0.8274  -14.2832 C   0  0  0  0  0  0  0  0  0  0  0  0
  -25.0246   -1.1765  -13.2278 C   0  0  0  0  0  0  0  0  0  0  0  0
  -26.3144   -1.6010  -13.6032 C   0  0  0  0  0  0  0  0  0  0  0  0
  -27.2762   -1.8966  -12.6318 C   0  0  0  0  0  0  0  0  0  0  0  0
  -26.9654   -1.7783  -11.2698 C   0  0  0  0  0  0  0  0  0  0  0  0
  -27.8880   -2.0517  -10.3225 O   0  0  0  0  0  0  0  0  0  0  0  0
  -25.6834   -1.3703  -10.8864 C   0  0  0  0  0  0  0  0  0  0  0  0
  -24.7188   -1.0704  -11.8576 C   0  0  0  0  0  0  0  0  0  0  0  0
  -28.7898   -2.3244  -10.5443 H   0  0  0  0  0  0  0  0  0  0  0  0
  1  2  1  0  0  0
  1 15  1  0  0  0
  1 16  1  0  0  0
  2  3  1  0  0  0
  2 14  1  0  0  0
  3  4  1  0  0  0
  4  5  1  0  0  0
  5  6  1  0  0  0
  5 13  2  0  0  0
  6  7  1  0  0  0
  6 17  1  0  0  0
  7  8  1  0  0  0
  7 12  2  0  0  0
  8  9  2  0  0  0
  9 10  1  0  0  0
 10 18  1  0  0  0
 10 11  2  0  0  0
 18 19  1  0  0  0
 19 20  1  0  0  0
 20 21  1  0  0  0
 21 22  1  0  0  0
 21 27  2  0  0  0
 22 23  2  0  0  0
 23 24  1  0  0  0
 24 25  1  0  0  0
 24 26  2  0  0  0
 25 28  1  0  0  0
 26 27  1  0  0  0
 11 12  1  0  0  0
 12 13  1  0  0  0
 13 14  1  0  0  0
M  END
> <minimizedAffinity>
-10.21725

$$$$
