CHEMBL223572


 39 43  0  0  0  0  0  0  0  0999 V2000
  -28.3551   -2.4934   -8.2836 C   0  0  0  0  0  0  0  0  0  0  0  0
  -28.9541   -3.7710   -8.3779 C   0  0  0  0  0  0  0  0  0  0  0  0
  -29.7397   -4.3146   -7.3668 C   0  0  0  0  0  0  0  0  0  0  0  0
  -29.9689   -3.6395   -6.1633 C   0  0  0  0  0  0  0  0  0  0  0  0
  -29.3814   -2.3593   -6.0737 C   0  0  0  0  0  0  0  0  0  0  0  0
  -29.4670   -1.4165   -5.0839 N   0  0  0  0  0  0  0  0  0  0  0  0
  -28.7591   -0.3050   -5.3064 N   0  0  0  0  0  0  0  0  0  0  0  0
  -28.2449   -0.4905   -6.5187 C   0  0  0  0  0  0  0  0  0  0  0  0
  -27.5001    0.4661   -7.0987 N   0  0  0  0  0  0  0  0  0  0  0  0
  -28.5873   -1.7684   -7.0761 C   0  0  0  0  0  0  0  0  0  0  0  0
  -30.0136   -1.4622   -4.2311 H   0  0  0  0  0  0  0  0  0  0  0  0
  -27.4614    1.3460   -6.5952 H   0  0  0  0  0  0  0  0  0  0  0  0
  -27.5847    0.5999   -8.1007 H   0  0  0  0  0  0  0  0  0  0  0  0
  -26.0748   -1.0939  -11.6720 C   0  0  0  0  0  0  0  0  0  0  0  0
  -25.4622   -1.3672  -10.4515 C   0  0  0  0  0  0  0  0  0  0  0  0
  -26.2166   -1.8210   -9.3719 C   0  0  0  0  0  0  0  0  0  0  0  0
  -27.6148   -1.9592   -9.4493 C   0  0  0  0  0  0  0  0  0  0  0  0
  -28.2237   -1.5423  -10.6446 C   0  0  0  0  0  0  0  0  0  0  0  0
  -27.4648   -1.1240  -11.7539 C   0  0  0  0  0  0  0  0  0  0  0  0
  -23.6234    0.1895  -14.0080 N   0  0  0  0  0  0  0  0  0  0  0  0
  -24.3228    0.1210  -12.8210 C   0  0  0  0  0  0  0  0  0  0  0  0
  -24.1094    0.8299  -11.8439 O   0  0  0  0  0  0  0  0  0  0  0  0
  -25.2952   -0.8805  -12.8360 N   0  0  0  0  0  0  0  0  0  0  0  0
  -24.0337   -0.2707  -14.8096 H   0  0  0  0  0  0  0  0  0  0  0  0
  -25.0474   -1.7002  -13.3698 H   0  0  0  0  0  0  0  0  0  0  0  0
  -18.8388    0.4259  -15.2326 C   0  0  0  0  0  0  0  0  0  0  0  0
  -20.1149    1.1104  -14.8439 C   0  0  0  0  0  0  0  0  0  0  0  0
  -20.1542    2.5043  -14.7193 C   0  0  0  0  0  0  0  0  0  0  0  0
  -21.3337    3.1388  -14.3543 C   0  0  0  0  0  0  0  0  0  0  0  0
  -22.4854    2.3863  -14.1120 C   0  0  0  0  0  0  0  0  0  0  0  0
  -22.4784    0.9943  -14.2436 C   0  0  0  0  0  0  0  0  0  0  0  0
  -21.2830    0.3634  -14.6081 C   0  0  0  0  0  0  0  0  0  0  0  0
  -30.8742   -4.2725   -5.1251 C   0  0  0  0  0  0  0  0  0  0  0  0
  -30.3184   -5.2618   -4.2039 N   0  0  0  0  0  0  0  0  0  0  0  0
  -28.9816   -4.9941   -3.6693 C   0  0  0  0  0  0  0  0  0  0  0  0
  -27.8356   -5.6173   -4.4796 C   0  0  0  0  0  0  0  0  0  0  0  0
  -28.0315   -7.0247   -4.6639 O   0  0  0  0  0  0  0  0  0  0  0  0
  -29.2746   -7.2841   -5.3260 C   0  0  0  0  0  0  0  0  0  0  0  0
  -30.4643   -6.6787   -4.5604 C   0  0  0  0  0  0  0  0  0  0  0  0
 26 27  1  0  0  0
 27 28  1  0  0  0
 27 32  2  0  0  0
 28 29  2  0  0  0
 29 30  1  0  0  0
 30 31  2  0  0  0
 31 20  1  0  0  0
 31 32  1  0  0  0
 20 21  1  0  0  0
 20 24  1  0  0  0
 21 22  2  0  0  0
 21 23  1  0  0  0
 23 14  1  0  0  0
 23 25  1  0  0  0
 14 15  1  0  0  0
 14 19  2  0  0  0
 15 16  2  0  0  0
 16 17  1  0  0  0
 17  1  1  0  0  0
 17 18  2  0  0  0
  1  2  1  0  0  0
  1 10  2  0  0  0
  2  3  2  0  0  0
  3  4  1  0  0  0
  4 33  1  0  0  0
  4  5  2  0  0  0
 33 34  1  0  0  0
 34 35  1  0  0  0
 34 39  1  0  0  0
 35 36  1  0  0  0
 36 37  1  0  0  0
 37 38  1  0  0  0
 38 39  1  0  0  0
  5  6  1  0  0  0
  5 10  1  0  0  0
  6  7  1  0  0  0
  6 11  1  0  0  0
  7  8  2  0  0  0
  8  9  1  0  0  0
  8 10  1  0  0  0
  9 12  1  0  0  0
  9 13  1  0  0  0
 18 19  1  0  0  0
M  END
> <minimizedAffinity>
-10.15262

$$$$
