CHEMBL273077


 32 35  0  0  0  0  0  0  0  0999 V2000
  -27.7440   -1.9987   -9.3235 C   0  0  0  0  0  0  0  0  0  0  0  0
  -28.3593   -1.6124  -10.5223 C   0  0  0  0  0  0  0  0  0  0  0  0
  -27.6186   -1.2499  -11.6513 C   0  0  0  0  0  0  0  0  0  0  0  0
  -26.2281   -1.1961  -11.6157 C   0  0  0  0  0  0  0  0  0  0  0  0
  -25.5914   -1.5431  -10.4266 C   0  0  0  0  0  0  0  0  0  0  0  0
  -26.3397   -1.9946   -9.3254 C   0  0  0  0  0  0  0  0  0  0  0  0
  -27.5920    0.5251   -7.0119 N   0  0  0  0  0  0  0  0  0  0  0  0
  -28.3151   -0.4341   -6.4025 C   0  0  0  0  0  0  0  0  0  0  0  0
  -28.7385   -0.2955   -5.1436 N   0  0  0  0  0  0  0  0  0  0  0  0
  -29.4692   -1.4253   -4.8636 O   0  0  0  0  0  0  0  0  0  0  0  0
  -29.4672   -2.2480   -5.9385 C   0  0  0  0  0  0  0  0  0  0  0  0
  -30.1234   -3.4760   -5.9856 C   0  0  0  0  0  0  0  0  0  0  0  0
  -30.0071   -4.1945   -7.1622 C   0  0  0  0  0  0  0  0  0  0  0  0
  -29.2415   -3.6976   -8.2196 C   0  0  0  0  0  0  0  0  0  0  0  0
  -28.5611   -2.4441   -8.1705 C   0  0  0  0  0  0  0  0  0  0  0  0
  -28.7139   -1.6909   -6.9689 C   0  0  0  0  0  0  0  0  0  0  0  0
  -27.4502    1.3929   -6.5044 H   0  0  0  0  0  0  0  0  0  0  0  0
  -27.6438    0.6471   -8.0175 H   0  0  0  0  0  0  0  0  0  0  0  0
  -25.4343   -0.8548  -12.7357 N   0  0  0  0  0  0  0  0  0  0  0  0
  -24.2891   -0.0866  -12.7034 C   0  0  0  0  0  0  0  0  0  0  0  0
  -23.7411    0.3290  -11.6812 O   0  0  0  0  0  0  0  0  0  0  0  0
  -23.8244    0.2313  -13.9725 N   0  0  0  0  0  0  0  0  0  0  0  0
  -25.7050   -1.2404  -13.6288 H   0  0  0  0  0  0  0  0  0  0  0  0
  -24.5571    0.3720  -14.6533 H   0  0  0  0  0  0  0  0  0  0  0  0
  -22.6758    1.0489  -14.0988 C   0  0  0  0  0  0  0  0  0  0  0  0
  -22.7628    2.4411  -13.9580 C   0  0  0  0  0  0  0  0  0  0  0  0
  -21.6441    3.2453  -14.1690 C   0  0  0  0  0  0  0  0  0  0  0  0
  -20.4402    2.6539  -14.5310 C   0  0  0  0  0  0  0  0  0  0  0  0
  -19.3788    3.4418  -14.7583 F   0  0  0  0  0  0  0  0  0  0  0  0
  -20.3421    1.2686  -14.6623 C   0  0  0  0  0  0  0  0  0  0  0  0
  -18.8613    0.5404  -15.1569 Cl  0  0  0  0  0  0  0  0  0  0  0  0
  -21.4520    0.4561  -14.4235 C   0  0  0  0  0  0  0  0  0  0  0  0
  7  8  1  0  0  0
  7 17  1  0  0  0
  7 18  1  0  0  0
  8  9  2  0  0  0
  8 16  1  0  0  0
  9 10  1  0  0  0
 10 11  1  0  0  0
 11 12  1  0  0  0
 11 16  2  0  0  0
 12 13  2  0  0  0
 13 14  1  0  0  0
 14 15  2  0  0  0
 15  1  1  0  0  0
 15 16  1  0  0  0
  1  2  1  0  0  0
  1  6  2  0  0  0
  2  3  2  0  0  0
  3  4  1  0  0  0
  4 19  1  0  0  0
  4  5  2  0  0  0
 19 20  1  0  0  0
 19 23  1  0  0  0
 20 21  2  0  0  0
 20 22  1  0  0  0
 22 25  1  0  0  0
 22 24  1  0  0  0
 25 26  1  0  0  0
 25 32  2  0  0  0
 26 27  2  0  0  0
 27 28  1  0  0  0
 28 29  1  0  0  0
 28 30  2  0  0  0
 30 31  1  0  0  0
 30 32  1  0  0  0
  5  6  1  0  0  0
M  END
> <minimizedAffinity>
-9.22203

$$$$
