CHEMBL4527824


 29 33  0  0  0  0  0  0  0  0999 V2000
  -29.9124   -6.0017   -5.2631 C   0  0  0  0  0  0  0  0  0  0  0  0
  -29.2720   -4.9286   -5.9973 C   0  0  0  0  0  0  0  0  0  0  0  0
  -28.8214   -5.4032   -7.1719 N   0  0  0  0  0  0  0  0  0  0  0  0
  -29.1775   -6.7013   -7.2025 N   0  0  0  0  0  0  0  0  0  0  0  0
  -29.9898   -7.0777   -6.1548 C   0  0  0  0  0  0  0  0  0  0  0  0
  -30.7117   -8.2459   -6.0605 N   0  0  0  0  0  0  0  0  0  0  0  0
  -30.4112   -9.5509   -6.6535 C   0  0  0  0  0  0  0  0  0  0  0  0
  -29.9868   -9.5839   -8.1158 C   0  0  0  0  0  0  0  0  0  0  0  0
  -28.5706   -9.0241   -8.0468 C   0  0  0  0  0  0  0  0  0  0  0  0
  -28.0220   -9.5104   -6.6693 C   0  0  0  0  0  0  0  0  0  0  0  0
  -29.2058  -10.2073   -5.9791 C   0  0  0  0  0  0  0  0  0  0  0  0
  -29.1527  -11.6117   -6.2668 O   0  0  0  0  0  0  0  0  0  0  0  0
  -28.6849   -7.5111   -8.2900 C   0  0  0  0  0  0  0  0  0  0  0  0
  -31.2685   -8.3427   -5.2086 H   0  0  0  0  0  0  0  0  0  0  0  0
  -30.0528  -11.9848   -6.2315 H   0  0  0  0  0  0  0  0  0  0  0  0
  -28.9739   -3.5227   -5.6135 C   0  0  0  0  0  0  0  0  0  0  0  0
  -27.7443   -3.1592   -5.0603 C   0  0  0  0  0  0  0  0  0  0  0  0
  -27.3585   -1.8303   -4.8613 C   0  0  0  0  0  0  0  0  0  0  0  0
  -28.3008   -0.8302   -5.0992 C   0  0  0  0  0  0  0  0  0  0  0  0
  -28.1378    0.8748   -4.9289 S   0  0  0  0  0  0  0  0  0  0  0  0
  -29.7894    1.0566   -5.3329 C   0  0  0  0  0  0  0  0  0  0  0  0
  -30.4427   -0.0426   -5.6371 N   0  0  0  0  0  0  0  0  0  0  0  0
  -29.5956   -1.1398   -5.5218 C   0  0  0  0  0  0  0  0  0  0  0  0
  -29.9234   -2.4953   -5.7921 C   0  0  0  0  0  0  0  0  0  0  0  0
  -29.3745   -6.2870   -2.9617 N   0  0  0  0  0  0  0  0  0  0  0  0
  -30.3587   -6.0325   -3.8773 C   0  0  0  0  0  0  0  0  0  0  0  0
  -31.4847   -5.7790   -3.4602 O   0  0  0  0  0  0  0  0  0  0  0  0
  -29.6195   -6.0529   -2.0065 H   0  0  0  0  0  0  0  0  0  0  0  0
  -28.4075   -6.1883   -3.2375 H   0  0  0  0  0  0  0  0  0  0  0  0
 25 26  1  0  0  0
 25 28  1  0  0  0
 25 29  1  0  0  0
 26 27  2  0  0  0
 26  1  1  0  0  0
  1  2  1  0  0  0
  1  5  2  0  0  0
  2 16  1  0  0  0
  2  3  2  0  0  0
 16 17  1  0  0  0
 16 24  2  0  0  0
 17 18  2  0  0  0
 18 19  1  0  0  0
 19 20  1  0  0  0
 19 23  2  0  0  0
 20 21  1  0  0  0
 21 22  2  0  0  0
 22 23  1  0  0  0
 23 24  1  0  0  0
  3  4  1  0  0  0
  4  5  1  0  0  0
  4 13  1  0  0  0
  5  6  1  0  0  0
  6  7  1  0  0  0
  6 14  1  0  0  0
  7  8  1  0  0  0
  7 11  1  0  0  0
  8  9  1  0  0  0
  9 10  1  0  0  0
  9 13  1  0  0  0
 10 11  1  0  0  0
 11 12  1  0  0  0
 12 15  1  0  0  0
M  END
> <minimizedAffinity>
-8.54647

$$$$
