CHEMBL3656117


 38 41  0  0  0  0  0  0  0  0999 V2000
  -24.7887   -1.4963  -12.8125 C   0  0  0  0  0  0  0  0  0  0  0  0
  -26.0772   -1.4840  -13.3564 C   0  0  0  0  0  0  0  0  0  0  0  0
  -27.1939   -1.6175  -12.5214 C   0  0  0  0  0  0  0  0  0  0  0  0
  -27.0318   -1.7434  -11.1394 C   0  0  0  0  0  0  0  0  0  0  0  0
  -25.7434   -1.8189  -10.6009 C   0  0  0  0  0  0  0  0  0  0  0  0
  -24.6383   -1.6863  -11.4388 C   0  0  0  0  0  0  0  0  0  0  0  0
  -23.4090   -1.6701  -10.8999 F   0  0  0  0  0  0  0  0  0  0  0  0
  -21.8920   -0.0295  -14.4404 N   0  0  0  0  0  0  0  0  0  0  0  0
  -22.9810   -0.0707  -13.5896 C   0  0  0  0  0  0  0  0  0  0  0  0
  -23.3326    0.8286  -12.8295 O   0  0  0  0  0  0  0  0  0  0  0  0
  -23.6314   -1.2974  -13.6117 N   0  0  0  0  0  0  0  0  0  0  0  0
  -21.6504   -0.8958  -14.9046 H   0  0  0  0  0  0  0  0  0  0  0  0
  -23.0025   -2.0931  -13.6387 H   0  0  0  0  0  0  0  0  0  0  0  0
  -17.2781    1.4716  -15.4393 C   0  0  0  0  0  0  0  0  0  0  0  0
  -18.6984    1.7893  -15.0712 C   0  0  0  0  0  0  0  0  0  0  0  0
  -19.0684    3.1165  -14.8328 C   0  0  0  0  0  0  0  0  0  0  0  0
  -20.3883    3.4242  -14.5281 C   0  0  0  0  0  0  0  0  0  0  0  0
  -21.3417    2.4127  -14.4386 C   0  0  0  0  0  0  0  0  0  0  0  0
  -22.6055    2.8177  -14.2724 F   0  0  0  0  0  0  0  0  0  0  0  0
  -20.9994    1.0623  -14.6041 C   0  0  0  0  0  0  0  0  0  0  0  0
  -19.6648    0.7697  -14.9544 C   0  0  0  0  0  0  0  0  0  0  0  0
  -28.1922   -1.8359  -10.4016 O   0  0  0  0  0  0  0  0  0  0  0  0
  -28.1248   -1.9662   -9.0324 C   0  0  0  0  0  0  0  0  0  0  0  0
  -27.6828   -0.9635   -8.1754 C   0  0  0  0  0  0  0  0  0  0  0  0
  -27.6286   -1.2456   -6.8220 C   0  0  0  0  0  0  0  0  0  0  0  0
  -28.0222   -2.4188   -6.2791 N   0  0  0  0  0  0  0  0  0  0  0  0
  -28.5113   -3.3542   -7.1302 C   0  0  0  0  0  0  0  0  0  0  0  0
  -28.5894   -3.1666   -8.5027 C   0  0  0  0  0  0  0  0  0  0  0  0
  -28.9481   -4.5852   -6.4786 C   0  0  0  0  0  0  0  0  0  0  0  0
  -28.7000   -5.1086   -5.2226 C   0  0  0  0  0  0  0  0  0  0  0  0
  -29.3506   -6.3735   -5.1100 C   0  0  0  0  0  0  0  0  0  0  0  0
  -30.0216   -6.5656   -6.3066 C   0  0  0  0  0  0  0  0  0  0  0  0
  -29.7779   -5.4829   -7.1137 N   0  0  0  0  0  0  0  0  0  0  0  0
  -30.1415   -5.3284   -8.0465 H   0  0  0  0  0  0  0  0  0  0  0  0
  -29.3218   -7.2534   -3.9472 C   0  0  0  0  0  0  0  0  0  0  0  0
  -28.5450   -8.1896   -3.8313 O   0  0  0  0  0  0  0  0  0  0  0  0
  -30.2629   -6.9797   -3.0089 O   0  0  0  0  0  0  0  0  0  0  0  0
  -30.8826   -6.2956   -3.3181 H   0  0  0  0  0  0  0  0  0  0  0  0
 14 15  1  0  0  0
 15 16  1  0  0  0
 15 21  2  0  0  0
 16 17  2  0  0  0
 17 18  1  0  0  0
 18 19  1  0  0  0
 18 20  2  0  0  0
 20  8  1  0  0  0
 20 21  1  0  0  0
  8  9  1  0  0  0
  8 12  1  0  0  0
  9 10  2  0  0  0
  9 11  1  0  0  0
 11  1  1  0  0  0
 11 13  1  0  0  0
  1  2  1  0  0  0
  1  6  2  0  0  0
  2  3  2  0  0  0
  3  4  1  0  0  0
  4 22  1  0  0  0
  4  5  2  0  0  0
 22 23  1  0  0  0
 23 24  1  0  0  0
 23 28  2  0  0  0
 24 25  2  0  0  0
 25 26  1  0  0  0
 26 27  2  0  0  0
 27 29  1  0  0  0
 27 28  1  0  0  0
 29 30  2  0  0  0
 29 33  1  0  0  0
 30 31  1  0  0  0
 31 35  1  0  0  0
 31 32  2  0  0  0
 35 36  2  0  0  0
 35 37  1  0  0  0
 37 38  1  0  0  0
 32 33  1  0  0  0
 33 34  1  0  0  0
  5  6  1  0  0  0
  6  7  1  0  0  0
M  END
> <minimizedAffinity>
-11.69466

$$$$
