CHEMBL1241492


 24 27  0  0  0  0  0  0  0  0999 V2000
  -29.1163   -3.4821   -6.8648 N   0  0  0  0  0  0  0  0  0  0  0  0
  -29.1291   -4.6139   -7.5997 N   0  0  0  0  0  0  0  0  0  0  0  0
  -29.7598   -5.5175   -6.8244 C   0  0  0  0  0  0  0  0  0  0  0  0
  -30.0894   -4.9564   -5.5479 C   0  0  0  0  0  0  0  0  0  0  0  0
  -30.6704   -5.3467   -4.3280 C   0  0  0  0  0  0  0  0  0  0  0  0
  -31.0583   -6.6387   -3.9971 N   0  0  0  0  0  0  0  0  0  0  0  0
  -30.8599   -4.4174   -3.3709 N   0  0  0  0  0  0  0  0  0  0  0  0
  -30.4624   -3.1537   -3.6072 C   0  0  0  0  0  0  0  0  0  0  0  0
  -29.8572   -2.6752   -4.7038 N   0  0  0  0  0  0  0  0  0  0  0  0
  -29.6993   -3.6289   -5.6359 C   0  0  0  0  0  0  0  0  0  0  0  0
  -30.4534   -7.3644   -4.3598 H   0  0  0  0  0  0  0  0  0  0  0  0
  -31.2393   -6.6933   -2.9995 H   0  0  0  0  0  0  0  0  0  0  0  0
  -30.0328   -6.8637   -7.3578 C   0  0  0  0  0  0  0  0  0  0  0  0
  -28.9571   -7.6655   -7.8494 C   0  0  0  0  0  0  0  0  0  0  0  0
  -29.1106   -8.9606   -8.3860 C   0  0  0  0  0  0  0  0  0  0  0  0
  -30.4234   -9.4523   -8.3386 C   0  0  0  0  0  0  0  0  0  0  0  0
  -30.8957  -10.6410   -8.7266 N   0  0  0  0  0  0  0  0  0  0  0  0
  -32.2490  -10.6217   -8.4310 O   0  0  0  0  0  0  0  0  0  0  0  0
  -32.6397   -9.4113   -7.8810 N   0  0  0  0  0  0  0  0  0  0  0  0
  -31.5299   -8.6681   -7.8085 C   0  0  0  0  0  0  0  0  0  0  0  0
  -31.3601   -7.3573   -7.3209 C   0  0  0  0  0  0  0  0  0  0  0  0
  -27.5742   -1.6032   -6.3997 C   0  0  0  0  0  0  0  0  0  0  0  0
  -28.5280   -2.2571   -7.3995 C   0  0  0  0  0  0  0  0  0  0  0  0
  -27.8375   -2.5016   -8.7412 C   0  0  0  0  0  0  0  0  0  0  0  0
 22 23  1  0  0  0
 23 24  1  0  0  0
 23  1  1  0  0  0
  1  2  1  0  0  0
  1 10  1  0  0  0
  2  3  2  0  0  0
  3 13  1  0  0  0
  3  4  1  0  0  0
 13 14  1  0  0  0
 13 21  2  0  0  0
 14 15  2  0  0  0
 15 16  1  0  0  0
 16 17  2  0  0  0
 16 20  1  0  0  0
 17 18  1  0  0  0
 18 19  1  0  0  0
 19 20  2  0  0  0
 20 21  1  0  0  0
  4  5  1  0  0  0
  4 10  2  0  0  0
  5  6  1  0  0  0
  5  7  2  0  0  0
  6 11  1  0  0  0
  6 12  1  0  0  0
  7  8  1  0  0  0
  8  9  2  0  0  0
  9 10  1  0  0  0
M  END
> <minimizedAffinity>
-8.19427

$$$$
