CHEMBL3696079


 45 48  0  0  0  0  0  0  0  0999 V2000
  -23.5953   -0.6846  -13.1575 C   0  0  0  0  0  0  0  0  0  0  0  0
  -23.1884   -0.0046  -14.3999 C   0  0  0  0  0  0  0  0  0  0  0  0
  -24.0518   -0.1232  -15.4185 N   0  0  0  0  0  0  0  0  0  0  0  0
  -25.2744   -1.1458  -14.9903 S   0  0  0  0  0  0  0  0  0  0  0  0
  -24.7781   -1.3672  -13.3846 C   0  0  0  0  0  0  0  0  0  0  0  0
  -21.8980    0.6691  -14.6447 C   0  0  0  0  0  0  0  0  0  0  0  0
  -21.8026    2.0387  -14.4071 C   0  0  0  0  0  0  0  0  0  0  0  0
  -20.6383    2.7422  -14.6951 C   0  0  0  0  0  0  0  0  0  0  0  0
  -19.4932    2.1006  -15.1617 C   0  0  0  0  0  0  0  0  0  0  0  0
  -19.5470    0.7115  -15.3288 C   0  0  0  0  0  0  0  0  0  0  0  0
  -20.7435   -0.0006  -15.0758 C   0  0  0  0  0  0  0  0  0  0  0  0
  -18.3005    2.8091  -15.4733 N   0  0  0  0  0  0  0  0  0  0  0  0
  -17.0490    2.2228  -15.6055 C   0  0  0  0  0  0  0  0  0  0  0  0
  -16.8089    1.0197  -15.5228 O   0  0  0  0  0  0  0  0  0  0  0  0
  -18.3916    3.8053  -15.6151 H   0  0  0  0  0  0  0  0  0  0  0  0
  -15.8623    3.0773  -15.8628 C   0  0  0  0  0  0  0  0  0  0  0  0
  -14.6828    3.0449  -15.1146 C   0  0  0  0  0  0  0  0  0  0  0  0
  -13.5777    3.7894  -15.5410 C   0  0  0  0  0  0  0  0  0  0  0  0
  -13.6303    4.5442  -16.7197 C   0  0  0  0  0  0  0  0  0  0  0  0
  -14.8023    4.5788  -17.4869 C   0  0  0  0  0  0  0  0  0  0  0  0
  -15.9121    3.8698  -17.0256 C   0  0  0  0  0  0  0  0  0  0  0  0
  -14.8892    5.2915  -18.8005 C   0  0  0  0  0  0  0  0  0  0  0  0
  -13.7716    5.1703  -19.5725 F   0  0  0  0  0  0  0  0  0  0  0  0
  -15.9176    4.8356  -19.5785 F   0  0  0  0  0  0  0  0  0  0  0  0
  -15.1009    6.6335  -18.6672 F   0  0  0  0  0  0  0  0  0  0  0  0
  -25.5993   -2.1652  -12.5994 N   0  0  0  0  0  0  0  0  0  0  0  0
  -26.4064   -1.5568  -11.6585 C   0  0  0  0  0  0  0  0  0  0  0  0
  -26.4883   -0.3475  -11.4804 O   0  0  0  0  0  0  0  0  0  0  0  0
  -27.0953   -2.4649  -10.8794 N   0  0  0  0  0  0  0  0  0  0  0  0
  -26.0090   -2.9632  -13.0628 H   0  0  0  0  0  0  0  0  0  0  0  0
  -27.1624   -3.4295  -11.1692 H   0  0  0  0  0  0  0  0  0  0  0  0
  -27.9988   -1.9555   -9.8657 C   0  0  0  0  0  0  0  0  0  0  0  0
  -27.8772   -2.6343   -8.5006 C   0  0  0  0  0  0  0  0  0  0  0  0
  -27.8376   -1.5437   -7.4155 C   0  0  0  0  0  0  0  0  0  0  0  0
  -27.4425   -1.9896   -6.0694 N   0  0  0  0  0  0  0  0  0  0  0  0
  -28.2698   -3.0812   -5.5099 C   0  0  0  0  0  0  0  0  0  0  0  0
  -29.6751   -2.6563   -5.0473 C   0  0  0  0  0  0  0  0  0  0  0  0
  -29.6218   -1.5631   -4.1244 O   0  0  0  0  0  0  0  0  0  0  0  0
  -28.9259   -0.4509   -4.6977 C   0  0  0  0  0  0  0  0  0  0  0  0
  -27.4975   -0.8492   -5.1151 C   0  0  0  0  0  0  0  0  0  0  0  0
  -22.9420   -1.8402  -11.1549 N   0  0  0  0  0  0  0  0  0  0  0  0
  -22.8274   -0.7083  -11.9161 C   0  0  0  0  0  0  0  0  0  0  0  0
  -22.0475    0.1719  -11.5695 O   0  0  0  0  0  0  0  0  0  0  0  0
  -22.4871   -1.8128  -10.2532 H   0  0  0  0  0  0  0  0  0  0  0  0
  -23.7006   -2.4901  -11.2890 H   0  0  0  0  0  0  0  0  0  0  0  0
 41 42  1  0  0  0
 41 44  1  0  0  0
 41 45  1  0  0  0
 42 43  2  0  0  0
 42  1  1  0  0  0
  1  2  1  0  0  0
  1  5  2  0  0  0
  2  6  1  0  0  0
  2  3  2  0  0  0
  6  7  1  0  0  0
  6 11  2  0  0  0
  7  8  2  0  0  0
  8  9  1  0  0  0
  9 12  1  0  0  0
  9 10  2  0  0  0
 12 13  1  0  0  0
 12 15  1  0  0  0
 13 14  2  0  0  0
 13 16  1  0  0  0
 16 17  1  0  0  0
 16 21  2  0  0  0
 17 18  2  0  0  0
 18 19  1  0  0  0
 19 20  2  0  0  0
 20 22  1  0  0  0
 20 21  1  0  0  0
 22 23  1  0  0  0
 22 24  1  0  0  0
 22 25  1  0  0  0
 10 11  1  0  0  0
  3  4  1  0  0  0
  4  5  1  0  0  0
  5 26  1  0  0  0
 26 27  1  0  0  0
 26 30  1  0  0  0
 27 28  2  0  0  0
 27 29  1  0  0  0
 29 32  1  0  0  0
 29 31  1  0  0  0
 32 33  1  0  0  0
 33 34  1  0  0  0
 34 35  1  0  0  0
 35 36  1  0  0  0
 35 40  1  0  0  0
 36 37  1  0  0  0
 37 38  1  0  0  0
 38 39  1  0  0  0
 39 40  1  0  0  0
M  END
> <minimizedAffinity>
-8.98012

$$$$
