CHEMBL2063323


 42 46  0  0  0  0  0  0  0  0999 V2000
  -25.0023   -1.2584  -11.7698 C   0  0  0  0  0  0  0  0  0  0  0  0
  -23.9255   -0.4072  -11.8239 C   0  0  0  0  0  0  0  0  0  0  0  0
  -23.6565   -0.1849  -13.2014 C   0  0  0  0  0  0  0  0  0  0  0  0
  -24.5325   -0.8709  -13.9585 N   0  0  0  0  0  0  0  0  0  0  0  0
  -25.3086   -1.5179  -13.0759 N   0  0  0  0  0  0  0  0  0  0  0  0
  -26.0503   -2.1006  -13.4453 H   0  0  0  0  0  0  0  0  0  0  0  0
  -22.5952    0.6518  -13.7734 C   0  0  0  0  0  0  0  0  0  0  0  0
  -22.6775    2.0521  -13.7177 C   0  0  0  0  0  0  0  0  0  0  0  0
  -21.6725    2.8538  -14.2635 C   0  0  0  0  0  0  0  0  0  0  0  0
  -20.5646    2.2753  -14.8905 C   0  0  0  0  0  0  0  0  0  0  0  0
  -20.4680    0.8792  -14.9371 C   0  0  0  0  0  0  0  0  0  0  0  0
  -21.4740    0.0763  -14.3860 C   0  0  0  0  0  0  0  0  0  0  0  0
  -19.4986    3.1503  -15.4900 C   0  0  0  0  0  0  0  0  0  0  0  0
  -18.2560    2.4440  -15.6663 N   0  0  0  0  0  0  0  0  0  0  0  0
  -17.0789    3.0791  -15.9165 C   0  0  0  0  0  0  0  0  0  0  0  0
  -16.9207    4.2901  -15.9107 O   0  0  0  0  0  0  0  0  0  0  0  0
  -18.2484    1.4360  -15.7294 H   0  0  0  0  0  0  0  0  0  0  0  0
  -16.1440    2.1596  -16.2530 O   0  0  0  0  0  0  0  0  0  0  0  0
  -15.0257    2.0708  -15.3637 C   0  0  0  0  0  0  0  0  0  0  0  0
  -15.0343    0.7886  -14.5698 C   0  0  0  0  0  0  0  0  0  0  0  0
  -14.1616   -0.2602  -14.8928 C   0  0  0  0  0  0  0  0  0  0  0  0
  -14.1099   -1.4085  -14.0998 C   0  0  0  0  0  0  0  0  0  0  0  0
  -14.9374   -1.5245  -12.9846 C   0  0  0  0  0  0  0  0  0  0  0  0
  -15.8295   -0.5004  -12.6713 C   0  0  0  0  0  0  0  0  0  0  0  0
  -15.8838    0.6479  -13.4638 C   0  0  0  0  0  0  0  0  0  0  0  0
  -27.0508   -1.5812  -10.4011 C   0  0  0  0  0  0  0  0  0  0  0  0
  -27.7556   -0.9695  -11.1884 O   0  0  0  0  0  0  0  0  0  0  0  0
  -25.6427   -1.7738  -10.6473 N   0  0  0  0  0  0  0  0  0  0  0  0
  -25.0838   -2.2888   -9.9830 H   0  0  0  0  0  0  0  0  0  0  0  0
  -28.7026   -3.3331   -6.8268 C   0  0  0  0  0  0  0  0  0  0  0  0
  -28.3570   -1.9702   -6.8670 C   0  0  0  0  0  0  0  0  0  0  0  0
  -27.8187   -1.3725   -8.0117 C   0  0  0  0  0  0  0  0  0  0  0  0
  -27.6161   -2.1410   -9.1560 C   0  0  0  0  0  0  0  0  0  0  0  0
  -27.9339   -3.5049   -9.1343 C   0  0  0  0  0  0  0  0  0  0  0  0
  -28.4749   -4.0876   -7.9840 C   0  0  0  0  0  0  0  0  0  0  0  0
  -32.1012   -5.2034   -2.8278 C   0  0  0  0  0  0  0  0  0  0  0  0
  -30.8197   -4.8564   -3.4385 N   0  0  0  0  0  0  0  0  0  0  0  0
  -30.5857   -5.6697   -4.6541 C   0  0  0  0  0  0  0  0  0  0  0  0
  -29.2722   -5.2949   -5.3874 C   0  0  0  0  0  0  0  0  0  0  0  0
  -29.2941   -3.8567   -5.6980 N   0  0  0  0  0  0  0  0  0  0  0  0
  -29.4750   -3.0153   -4.4999 C   0  0  0  0  0  0  0  0  0  0  0  0
  -30.7871   -3.4185   -3.7899 C   0  0  0  0  0  0  0  0  0  0  0  0
 36 37  1  0  0  0
 37 38  1  0  0  0
 37 42  1  0  0  0
 38 39  1  0  0  0
 39 40  1  0  0  0
 40 30  1  0  0  0
 40 41  1  0  0  0
 30 31  1  0  0  0
 30 35  2  0  0  0
 31 32  2  0  0  0
 32 33  1  0  0  0
 33 26  1  0  0  0
 33 34  2  0  0  0
 26 27  2  0  0  0
 26 28  1  0  0  0
 28  1  1  0  0  0
 28 29  1  0  0  0
  1  2  2  0  0  0
  1  5  1  0  0  0
  2  3  1  0  0  0
  3  7  1  0  0  0
  3  4  2  0  0  0
  7  8  1  0  0  0
  7 12  2  0  0  0
  8  9  2  0  0  0
  9 10  1  0  0  0
 10 13  1  0  0  0
 10 11  2  0  0  0
 13 14  1  0  0  0
 14 15  1  0  0  0
 14 17  1  0  0  0
 15 16  2  0  0  0
 15 18  1  0  0  0
 18 19  1  0  0  0
 19 20  1  0  0  0
 20 21  1  0  0  0
 20 25  2  0  0  0
 21 22  2  0  0  0
 22 23  1  0  0  0
 23 24  2  0  0  0
 24 25  1  0  0  0
 11 12  1  0  0  0
  4  5  1  0  0  0
  5  6  1  0  0  0
 34 35  1  0  0  0
 41 42  1  0  0  0
M  END
> <minimizedAffinity>
-11.02104

$$$$
