CHEMBL203243


 29 32  0  0  0  0  0  0  0  0999 V2000
  -30.3052   -5.6169   -4.5039 C   0  0  0  0  0  0  0  0  0  0  0  0
  -31.6369   -5.7341   -4.0571 C   0  0  0  0  0  0  0  0  0  0  0  0
  -32.2003   -4.7714   -3.2230 C   0  0  0  0  0  0  0  0  0  0  0  0
  -31.4454   -3.6743   -2.8315 C   0  0  0  0  0  0  0  0  0  0  0  0
  -30.1521   -3.5061   -3.3279 C   0  0  0  0  0  0  0  0  0  0  0  0
  -29.5678   -4.4517   -4.1987 C   0  0  0  0  0  0  0  0  0  0  0  0
  -30.1253   -6.7787   -6.6245 N   0  0  0  0  0  0  0  0  0  0  0  0
  -29.7303   -6.7544   -5.2962 C   0  0  0  0  0  0  0  0  0  0  0  0
  -28.9708   -7.5321   -4.7354 O   0  0  0  0  0  0  0  0  0  0  0  0
  -30.7126   -6.0246   -6.9544 H   0  0  0  0  0  0  0  0  0  0  0  0
  -29.3294   -9.7944   -9.4952 C   0  0  0  0  0  0  0  0  0  0  0  0
  -28.3643   -8.8197   -9.2139 C   0  0  0  0  0  0  0  0  0  0  0  0
  -28.6081   -7.8111   -8.2762 C   0  0  0  0  0  0  0  0  0  0  0  0
  -29.8186   -7.7582   -7.5890 C   0  0  0  0  0  0  0  0  0  0  0  0
  -30.7817   -8.7408   -7.8501 C   0  0  0  0  0  0  0  0  0  0  0  0
  -30.5444   -9.7448   -8.7979 C   0  0  0  0  0  0  0  0  0  0  0  0
  -28.8601  -10.2414  -11.9402 C   0  0  0  0  0  0  0  0  0  0  0  0
  -29.0441  -10.8486  -10.5475 C   0  0  0  0  0  0  0  0  0  0  0  0
  -27.8385  -11.7068  -10.1564 C   0  0  0  0  0  0  0  0  0  0  0  0
  -28.1960   -4.1335   -4.7628 C   0  0  0  0  0  0  0  0  0  0  0  0
  -28.2205   -3.1829   -5.8697 N   0  0  0  0  0  0  0  0  0  0  0  0
  -28.2134   -3.5385   -7.1991 C   0  0  0  0  0  0  0  0  0  0  0  0
  -28.2493   -2.3873   -7.9504 C   0  0  0  0  0  0  0  0  0  0  0  0
  -28.2101   -1.2852   -7.0551 C   0  0  0  0  0  0  0  0  0  0  0  0
  -28.2118    0.1051   -7.2263 C   0  0  0  0  0  0  0  0  0  0  0  0
  -28.1206    0.9364   -6.1605 N   0  0  0  0  0  0  0  0  0  0  0  0
  -28.0212    0.3954   -4.9278 C   0  0  0  0  0  0  0  0  0  0  0  0
  -28.0134   -0.9634   -4.6521 C   0  0  0  0  0  0  0  0  0  0  0  0
  -28.1362   -1.8073   -5.7595 C   0  0  0  0  0  0  0  0  0  0  0  0
 17 18  1  0  0  0
 18 19  1  0  0  0
 18 11  1  0  0  0
 11 12  1  0  0  0
 11 16  2  0  0  0
 12 13  2  0  0  0
 13 14  1  0  0  0
 14  7  1  0  0  0
 14 15  2  0  0  0
  7  8  1  0  0  0
  7 10  1  0  0  0
  8  9  2  0  0  0
  8  1  1  0  0  0
  1  2  1  0  0  0
  1  6  2  0  0  0
  2  3  2  0  0  0
  3  4  1  0  0  0
  4  5  2  0  0  0
  5  6  1  0  0  0
  6 20  1  0  0  0
 20 21  1  0  0  0
 21 22  1  0  0  0
 21 29  1  0  0  0
 22 23  2  0  0  0
 23 24  1  0  0  0
 24 25  1  0  0  0
 24 29  2  0  0  0
 25 26  2  0  0  0
 26 27  1  0  0  0
 27 28  2  0  0  0
 28 29  1  0  0  0
 15 16  1  0  0  0
M  END
> <minimizedAffinity>
-9.11899

$$$$
