CHEMBL598431


 28 31  0  0  0  0  0  0  0  0999 V2000
  -12.1236   -2.7524   -9.9855 O   0  0  0  0  0  0  0  0  0  0  0  0
  -12.8226   -3.0961  -10.9377 C   0  0  0  0  0  0  0  0  0  0  0  0
  -12.2374   -3.3146  -12.3162 C   0  0  0  0  0  0  0  0  0  0  0  0
  -12.8440   -2.3715  -13.2932 C   0  0  0  0  0  0  0  0  0  0  0  0
  -12.1452   -1.3327  -13.8639 C   0  0  0  0  0  0  0  0  0  0  0  0
  -12.6989   -0.4317  -14.6912 N   0  0  0  0  0  0  0  0  0  0  0  0
  -13.9954   -0.5878  -14.9853 C   0  0  0  0  0  0  0  0  0  0  0  0
  -14.7477   -1.5691  -14.4678 N   0  0  0  0  0  0  0  0  0  0  0  0
  -14.1793   -2.4587  -13.6277 C   0  0  0  0  0  0  0  0  0  0  0  0
  -15.0620   -3.5069  -13.0650 C   0  0  0  0  0  0  0  0  0  0  0  0
  -15.8937   -4.1177  -13.9575 N   0  0  0  0  0  0  0  0  0  0  0  0
  -16.7425   -5.0600  -13.4923 C   0  0  0  0  0  0  0  0  0  0  0  0
  -16.8468   -5.4098  -12.1589 C   0  0  0  0  0  0  0  0  0  0  0  0
  -16.0153   -4.7724  -11.2463 C   0  0  0  0  0  0  0  0  0  0  0  0
  -15.0660   -3.8525  -11.6997 C   0  0  0  0  0  0  0  0  0  0  0  0
  -14.1513   -3.3760  -10.7397 N   0  0  0  0  0  0  0  0  0  0  0  0
  -14.4096   -3.4144   -9.7598 H   0  0  0  0  0  0  0  0  0  0  0  0
  -14.5438    0.3466  -15.8606 N   0  0  0  0  0  0  0  0  0  0  0  0
  -14.3362    0.0866  -16.8138 H   0  0  0  0  0  0  0  0  0  0  0  0
  -15.5932    1.2557  -15.6677 C   0  0  0  0  0  0  0  0  0  0  0  0
  -15.4332    2.6392  -15.8515 C   0  0  0  0  0  0  0  0  0  0  0  0
  -16.5003    3.5273  -15.7162 C   0  0  0  0  0  0  0  0  0  0  0  0
  -17.7608    3.0389  -15.4014 C   0  0  0  0  0  0  0  0  0  0  0  0
  -18.8062    3.9101  -15.2733 O   0  0  0  0  0  0  0  0  0  0  0  0
  -17.9507    1.6665  -15.2263 C   0  0  0  0  0  0  0  0  0  0  0  0
  -19.5063    1.0226  -14.8405 Cl  0  0  0  0  0  0  0  0  0  0  0  0
  -16.8743    0.7815  -15.3646 C   0  0  0  0  0  0  0  0  0  0  0  0
  -18.4897    4.8093  -15.4600 H   0  0  0  0  0  0  0  0  0  0  0  0
  1  2  2  0  0  0
  2  3  1  0  0  0
  2 16  1  0  0  0
  3  4  1  0  0  0
  4  5  1  0  0  0
  4  9  2  0  0  0
  5  6  2  0  0  0
  6  7  1  0  0  0
  7 18  1  0  0  0
  7  8  2  0  0  0
 18 20  1  0  0  0
 18 19  1  0  0  0
 20 21  1  0  0  0
 20 27  2  0  0  0
 21 22  2  0  0  0
 22 23  1  0  0  0
 23 24  1  0  0  0
 23 25  2  0  0  0
 24 28  1  0  0  0
 25 26  1  0  0  0
 25 27  1  0  0  0
  8  9  1  0  0  0
  9 10  1  0  0  0
 10 11  1  0  0  0
 10 15  2  0  0  0
 11 12  2  0  0  0
 12 13  1  0  0  0
 13 14  2  0  0  0
 14 15  1  0  0  0
 15 16  1  0  0  0
 16 17  1  0  0  0
M  END
> <minimizedAffinity>
-7.73497

$$$$
