CHEMBL250394


 25 28  0  0  0  0  0  0  0  0999 V2000
  -29.9960   -7.9042   -6.0393 C   0  0  0  0  0  0  0  0  0  0  0  0
  -29.4874   -8.5478   -5.0121 N   0  0  0  0  0  0  0  0  0  0  0  0
  -28.5229   -7.7284   -4.4723 N   0  0  0  0  0  0  0  0  0  0  0  0
  -28.3373   -6.5218   -5.1262 C   0  0  0  0  0  0  0  0  0  0  0  0
  -27.5217   -5.6611   -4.8691 O   0  0  0  0  0  0  0  0  0  0  0  0
  -29.3850   -6.5557   -6.1706 C   0  0  0  0  0  0  0  0  0  0  0  0
  -29.7559   -5.5515   -6.9732 C   0  0  0  0  0  0  0  0  0  0  0  0
  -27.9610   -8.0295   -3.6842 H   0  0  0  0  0  0  0  0  0  0  0  0
  -29.1355   -4.2801   -7.0894 C   0  0  0  0  0  0  0  0  0  0  0  0
  -28.3801   -3.9257   -8.1819 C   0  0  0  0  0  0  0  0  0  0  0  0
  -28.0371   -2.6106   -8.0327 N   0  0  0  0  0  0  0  0  0  0  0  0
  -27.2606   -1.8567   -8.9913 C   0  0  0  0  0  0  0  0  0  0  0  0
  -28.5714   -2.1022   -6.8648 C   0  0  0  0  0  0  0  0  0  0  0  0
  -28.5147   -0.8076   -6.3287 C   0  0  0  0  0  0  0  0  0  0  0  0
  -29.1604   -0.5725   -5.1162 C   0  0  0  0  0  0  0  0  0  0  0  0
  -29.8246   -1.5982   -4.4506 C   0  0  0  0  0  0  0  0  0  0  0  0
  -29.8801   -2.9059   -4.9740 C   0  0  0  0  0  0  0  0  0  0  0  0
  -30.5954   -3.9707   -4.1880 C   0  0  0  0  0  0  0  0  0  0  0  0
  -29.2504   -3.1494   -6.2253 C   0  0  0  0  0  0  0  0  0  0  0  0
  -29.5558   -9.6834   -8.6836 C   0  0  0  0  0  0  0  0  0  0  0  0
  -30.8280   -9.2772   -8.0351 C   0  0  0  0  0  0  0  0  0  0  0  0
  -32.0173   -9.6920   -8.6264 N   0  0  0  0  0  0  0  0  0  0  0  0
  -33.0746   -9.2357   -7.9822 N   0  0  0  0  0  0  0  0  0  0  0  0
  -32.6707   -8.2837   -6.6789 S   0  0  0  0  0  0  0  0  0  0  0  0
  -30.9842   -8.5186   -6.8797 C   0  0  0  0  0  0  0  0  0  0  0  0
 20 21  1  0  0  0
 21 22  1  0  0  0
 21 25  2  0  0  0
 22 23  2  0  0  0
 23 24  1  0  0  0
 24 25  1  0  0  0
 25  1  1  0  0  0
  1  2  2  0  0  0
  1  6  1  0  0  0
  2  3  1  0  0  0
  3  4  1  0  0  0
  3  8  1  0  0  0
  4  5  2  0  0  0
  4  6  1  0  0  0
  6  7  2  0  0  0
  7  9  1  0  0  0
  9 10  2  0  0  0
  9 19  1  0  0  0
 10 11  1  0  0  0
 11 12  1  0  0  0
 11 13  1  0  0  0
 13 14  1  0  0  0
 13 19  2  0  0  0
 14 15  2  0  0  0
 15 16  1  0  0  0
 16 17  2  0  0  0
 17 18  1  0  0  0
 17 19  1  0  0  0
M  END
> <minimizedAffinity>
-8.55853

$$$$
