CHEMBL196841


 36 40  0  0  0  0  0  0  0  0999 V2000
  -13.0152    2.2230  -16.3633 C   0  0  0  0  0  0  0  0  0  0  0  0
  -11.9081    2.5809  -17.0772 O   0  0  0  0  0  0  0  0  0  0  0  0
  -12.3062    3.3990  -18.0854 C   0  0  0  0  0  0  0  0  0  0  0  0
  -11.4352    3.9565  -18.9377 N   0  0  0  0  0  0  0  0  0  0  0  0
  -12.0526    4.7413  -19.8264 C   0  0  0  0  0  0  0  0  0  0  0  0
  -13.3700    4.9836  -19.9314 N   0  0  0  0  0  0  0  0  0  0  0  0
  -14.2179    4.3736  -19.0782 C   0  0  0  0  0  0  0  0  0  0  0  0
  -15.5546    4.6312  -19.2954 N   0  0  0  0  0  0  0  0  0  0  0  0
  -13.6842    3.5542  -18.0703 C   0  0  0  0  0  0  0  0  0  0  0  0
  -14.1481    2.7855  -16.9468 C   0  0  0  0  0  0  0  0  0  0  0  0
  -15.7348    5.4252  -19.8913 H   0  0  0  0  0  0  0  0  0  0  0  0
  -16.2654    4.3269  -18.6517 H   0  0  0  0  0  0  0  0  0  0  0  0
  -13.1412   -0.6861  -13.9615 C   0  0  0  0  0  0  0  0  0  0  0  0
  -12.0863   -0.3959  -13.1024 C   0  0  0  0  0  0  0  0  0  0  0  0
  -11.3663    0.7875  -13.2761 C   0  0  0  0  0  0  0  0  0  0  0  0
  -11.6841    1.6597  -14.3250 C   0  0  0  0  0  0  0  0  0  0  0  0
  -12.7474    1.3782  -15.1937 C   0  0  0  0  0  0  0  0  0  0  0  0
  -13.5053    0.2224  -14.9544 C   0  0  0  0  0  0  0  0  0  0  0  0
  -13.8521   -1.9199  -13.8725 N   0  0  0  0  0  0  0  0  0  0  0  0
  -13.3134   -2.7588  -14.1113 H   0  0  0  0  0  0  0  0  0  0  0  0
  -15.9651   -3.4051  -13.1295 C   0  0  0  0  0  0  0  0  0  0  0  0
  -14.7931   -2.2067  -12.5113 S   0  0  0  0  0  0  0  0  0  0  0  0
  -15.5016   -1.0048  -12.1395 O   0  0  0  0  0  0  0  0  0  0  0  0
  -13.9274   -2.8857  -11.5774 O   0  0  0  0  0  0  0  0  0  0  0  0
  -15.4961    2.6510  -16.4158 C   0  0  0  0  0  0  0  0  0  0  0  0
  -16.2779    3.7629  -16.0840 C   0  0  0  0  0  0  0  0  0  0  0  0
  -17.6086    3.6022  -15.6792 C   0  0  0  0  0  0  0  0  0  0  0  0
  -18.1643    2.3262  -15.5096 C   0  0  0  0  0  0  0  0  0  0  0  0
  -17.3548    1.2197  -15.8113 C   0  0  0  0  0  0  0  0  0  0  0  0
  -16.0576    1.3796  -16.2943 C   0  0  0  0  0  0  0  0  0  0  0  0
  -19.5512    2.1306  -15.0453 C   0  0  0  0  0  0  0  0  0  0  0  0
  -20.1126    0.8513  -14.9083 C   0  0  0  0  0  0  0  0  0  0  0  0
  -21.4130    0.6821  -14.4315 C   0  0  0  0  0  0  0  0  0  0  0  0
  -22.1770    1.7908  -14.0701 C   0  0  0  0  0  0  0  0  0  0  0  0
  -21.6454    3.0661  -14.1991 C   0  0  0  0  0  0  0  0  0  0  0  0
  -20.3512    3.2356  -14.6910 C   0  0  0  0  0  0  0  0  0  0  0  0
 21 22  1  0  0  0
 22 23  2  0  0  0
 22 24  2  0  0  0
 22 19  1  0  0  0
 19 13  1  0  0  0
 19 20  1  0  0  0
 13 14  1  0  0  0
 13 18  2  0  0  0
 14 15  2  0  0  0
 15 16  1  0  0  0
 16 17  2  0  0  0
 17  1  1  0  0  0
 17 18  1  0  0  0
  1  2  1  0  0  0
  1 10  2  0  0  0
  2  3  1  0  0  0
  3  4  1  0  0  0
  3  9  2  0  0  0
  4  5  2  0  0  0
  5  6  1  0  0  0
  6  7  2  0  0  0
  7  8  1  0  0  0
  7  9  1  0  0  0
  8 11  1  0  0  0
  8 12  1  0  0  0
  9 10  1  0  0  0
 10 25  1  0  0  0
 25 26  1  0  0  0
 25 30  2  0  0  0
 26 27  2  0  0  0
 27 28  1  0  0  0
 28 31  1  0  0  0
 28 29  2  0  0  0
 31 32  1  0  0  0
 31 36  2  0  0  0
 32 33  2  0  0  0
 33 34  1  0  0  0
 34 35  2  0  0  0
 35 36  1  0  0  0
 29 30  1  0  0  0
M  END
> <minimizedAffinity>
-9.27757

$$$$
