CHEMBL3950156


 36 39  0  0  0  0  0  0  0  0999 V2000
  -27.9231   -2.2099   -8.6285 N   0  0  0  0  0  0  0  0  0  0  0  0
  -27.4141   -1.6107   -9.8442 C   0  0  0  0  0  0  0  0  0  0  0  0
  -28.2593   -1.7594  -10.9442 C   0  0  0  0  0  0  0  0  0  0  0  0
  -27.7359   -1.7912  -12.2202 C   0  0  0  0  0  0  0  0  0  0  0  0
  -26.4197   -1.5009  -12.4693 C   0  0  0  0  0  0  0  0  0  0  0  0
  -26.0390   -1.7705  -13.7173 N   0  0  0  0  0  0  0  0  0  0  0  0
  -24.8317   -1.3325  -14.0813 C   0  0  0  0  0  0  0  0  0  0  0  0
  -24.0498   -0.5649  -13.2423 C   0  0  0  0  0  0  0  0  0  0  0  0
  -24.3715   -0.4063  -11.9216 N   0  0  0  0  0  0  0  0  0  0  0  0
  -25.5903   -0.9511  -11.4641 C   0  0  0  0  0  0  0  0  0  0  0  0
  -26.1161   -1.0905  -10.1107 C   0  0  0  0  0  0  0  0  0  0  0  0
  -22.9885    0.1931  -13.8993 C   0  0  0  0  0  0  0  0  0  0  0  0
  -21.7560   -0.2667  -14.4376 C   0  0  0  0  0  0  0  0  0  0  0  0
  -20.9053    0.7275  -14.7247 N   0  0  0  0  0  0  0  0  0  0  0  0
  -21.5835    1.8301  -14.3663 N   0  0  0  0  0  0  0  0  0  0  0  0
  -21.1303    3.1375  -14.7820 C   0  0  0  0  0  0  0  0  0  0  0  0
  -22.7512    1.5464  -13.7097 C   0  0  0  0  0  0  0  0  0  0  0  0
  -28.7193    0.1275   -5.7953 C   0  0  0  0  0  0  0  0  0  0  0  0
  -28.4494   -0.6735   -4.6854 C   0  0  0  0  0  0  0  0  0  0  0  0
  -27.9414   -1.9556   -4.8699 C   0  0  0  0  0  0  0  0  0  0  0  0
  -27.7129   -2.4376   -6.1676 C   0  0  0  0  0  0  0  0  0  0  0  0
  -27.9684   -1.6689   -7.3146 C   0  0  0  0  0  0  0  0  0  0  0  0
  -28.4557   -0.3633   -7.0948 C   0  0  0  0  0  0  0  0  0  0  0  0
  -30.6889    1.4830   -5.8751 C   0  0  0  0  0  0  0  0  0  0  0  0
  -29.2709    1.3851   -5.7226 O   0  0  0  0  0  0  0  0  0  0  0  0
  -27.6578   -2.8497   -3.8714 O   0  0  0  0  0  0  0  0  0  0  0  0
  -28.7586   -3.3587   -3.1263 C   0  0  0  0  0  0  0  0  0  0  0  0
  -27.6509   -3.6966   -8.7260 C   0  0  0  0  0  0  0  0  0  0  0  0
  -28.6966   -4.6677   -8.1083 C   0  0  0  0  0  0  0  0  0  0  0  0
  -28.2696   -5.9011   -7.4294 N   0  0  0  0  0  0  0  0  0  0  0  0
  -27.2750   -6.0737   -7.5768 H   0  0  0  0  0  0  0  0  0  0  0  0
  -28.6285   -5.9937   -5.9964 C   0  0  0  0  0  0  0  0  0  0  0  0
  -30.1399   -5.9547   -5.6336 C   0  0  0  0  0  0  0  0  0  0  0  0
  -30.4075   -6.5221   -4.4376 F   0  0  0  0  0  0  0  0  0  0  0  0
  -30.5844   -4.6757   -5.5827 F   0  0  0  0  0  0  0  0  0  0  0  0
  -30.8806   -6.5983   -6.5669 F   0  0  0  0  0  0  0  0  0  0  0  0
 24 25  1  0  0  0
 25 18  1  0  0  0
 18 19  1  0  0  0
 18 23  2  0  0  0
 19 20  2  0  0  0
 20 26  1  0  0  0
 20 21  1  0  0  0
 26 27  1  0  0  0
 21 22  2  0  0  0
 22  1  1  0  0  0
 22 23  1  0  0  0
  1 28  1  0  0  0
  1  2  1  0  0  0
 28 29  1  0  0  0
 29 30  1  0  0  0
 30 32  1  0  0  0
 30 31  1  0  0  0
 32 33  1  0  0  0
 33 34  1  0  0  0
 33 35  1  0  0  0
 33 36  1  0  0  0
  2  3  1  0  0  0
  2 11  2  0  0  0
  3  4  2  0  0  0
  4  5  1  0  0  0
  5  6  1  0  0  0
  5 10  2  0  0  0
  6  7  2  0  0  0
  7  8  1  0  0  0
  8 12  1  0  0  0
  8  9  2  0  0  0
 12 13  1  0  0  0
 12 17  2  0  0  0
 13 14  2  0  0  0
 14 15  1  0  0  0
 15 16  1  0  0  0
 15 17  1  0  0  0
  9 10  1  0  0  0
 10 11  1  0  0  0
M  END
> <minimizedAffinity>
-8.39039

$$$$
