CHEMBL4102831


 33 36  0  0  0  0  0  0  0  0999 V2000
  -23.6675    0.0855  -13.0823 C   0  0  0  0  0  0  0  0  0  0  0  0
  -23.6206    1.4807  -13.1001 C   0  0  0  0  0  0  0  0  0  0  0  0
  -22.6507    2.1679  -13.8297 C   0  0  0  0  0  0  0  0  0  0  0  0
  -21.6458    1.5001  -14.5324 C   0  0  0  0  0  0  0  0  0  0  0  0
  -21.6461    0.1120  -14.4946 C   0  0  0  0  0  0  0  0  0  0  0  0
  -22.6867   -0.5634  -13.8424 C   0  0  0  0  0  0  0  0  0  0  0  0
  -25.9310   -1.0454  -15.6551 C   0  0  0  0  0  0  0  0  0  0  0  0
  -26.4174   -1.4377  -14.3069 C   0  0  0  0  0  0  0  0  0  0  0  0
  -27.5896   -2.0987  -14.2601 N   0  0  0  0  0  0  0  0  0  0  0  0
  -27.7656   -2.3342  -12.9571 N   0  0  0  0  0  0  0  0  0  0  0  0
  -26.7803   -1.8614  -12.1600 C   0  0  0  0  0  0  0  0  0  0  0  0
  -26.7500   -1.9986  -10.8187 N   0  0  0  0  0  0  0  0  0  0  0  0
  -25.6774   -1.4399  -10.2652 C   0  0  0  0  0  0  0  0  0  0  0  0
  -24.6829   -0.7573  -10.9468 C   0  0  0  0  0  0  0  0  0  0  0  0
  -24.7344   -0.6285  -12.3570 C   0  0  0  0  0  0  0  0  0  0  0  0
  -25.8612   -1.2263  -12.9923 C   0  0  0  0  0  0  0  0  0  0  0  0
  -28.5907   -2.8499  -12.6490 H   0  0  0  0  0  0  0  0  0  0  0  0
  -20.6688    2.1681  -15.3142 N   0  0  0  0  0  0  0  0  0  0  0  0
  -19.3072    2.0607  -15.1157 C   0  0  0  0  0  0  0  0  0  0  0  0
  -18.7657    1.3472  -14.2759 O   0  0  0  0  0  0  0  0  0  0  0  0
  -18.5763    2.8818  -15.9540 N   0  0  0  0  0  0  0  0  0  0  0  0
  -21.0010    2.7559  -16.0653 H   0  0  0  0  0  0  0  0  0  0  0  0
  -19.0036    3.7749  -16.1479 H   0  0  0  0  0  0  0  0  0  0  0  0
  -17.1635    2.8710  -15.8597 C   0  0  0  0  0  0  0  0  0  0  0  0
  -16.4819    4.0847  -15.8803 C   0  0  0  0  0  0  0  0  0  0  0  0
  -15.0881    4.0958  -15.8473 C   0  0  0  0  0  0  0  0  0  0  0  0
  -14.3744    2.8973  -15.7737 C   0  0  0  0  0  0  0  0  0  0  0  0
  -15.0463    1.6742  -15.6449 C   0  0  0  0  0  0  0  0  0  0  0  0
  -16.4484    1.6707  -15.7211 C   0  0  0  0  0  0  0  0  0  0  0  0
  -14.2776    0.3880  -15.3977 C   0  0  0  0  0  0  0  0  0  0  0  0
  -14.0748    0.0718  -13.9666 N   0  0  0  0  0  0  0  0  0  0  0  0
  -14.9734   -0.9904  -13.5003 C   0  0  0  0  0  0  0  0  0  0  0  0
  -12.6888   -0.3465  -13.7339 C   0  0  0  0  0  0  0  0  0  0  0  0
  7  8  1  0  0  0
  8  9  2  0  0  0
  8 16  1  0  0  0
  9 10  1  0  0  0
 10 11  1  0  0  0
 10 17  1  0  0  0
 11 12  1  0  0  0
 11 16  2  0  0  0
 12 13  2  0  0  0
 13 14  1  0  0  0
 14 15  2  0  0  0
 15  1  1  0  0  0
 15 16  1  0  0  0
  1  2  1  0  0  0
  1  6  2  0  0  0
  2  3  2  0  0  0
  3  4  1  0  0  0
  4 18  1  0  0  0
  4  5  2  0  0  0
 18 19  1  0  0  0
 18 22  1  0  0  0
 19 20  2  0  0  0
 19 21  1  0  0  0
 21 24  1  0  0  0
 21 23  1  0  0  0
 24 25  1  0  0  0
 24 29  2  0  0  0
 25 26  2  0  0  0
 26 27  1  0  0  0
 27 28  2  0  0  0
 28 30  1  0  0  0
 28 29  1  0  0  0
 30 31  1  0  0  0
 31 32  1  0  0  0
 31 33  1  0  0  0
  5  6  1  0  0  0
M  END
> <minimizedAffinity>
-9.04827

$$$$
