CHEMBL181567


 24 26  0  0  0  0  0  0  0  0999 V2000
  -29.1835   -2.0568   -4.9144 C   0  0  0  0  0  0  0  0  0  0  0  0
  -29.9776   -2.3335   -3.8176 C   0  0  0  0  0  0  0  0  0  0  0  0
  -30.5097   -3.5763   -3.9605 N   0  0  0  0  0  0  0  0  0  0  0  0
  -31.3443   -4.1402   -3.0785 N   0  0  0  0  0  0  0  0  0  0  0  0
  -31.7240   -5.3295   -3.4109 C   0  0  0  0  0  0  0  0  0  0  0  0
  -31.3456   -6.0220   -4.5237 N   0  0  0  0  0  0  0  0  0  0  0  0
  -30.5324   -5.4879   -5.3929 C   0  0  0  0  0  0  0  0  0  0  0  0
  -30.0676   -4.1464   -5.1232 C   0  0  0  0  0  0  0  0  0  0  0  0
  -29.2275   -3.2302   -5.7581 C   0  0  0  0  0  0  0  0  0  0  0  0
  -28.4717   -3.3299   -7.0413 C   0  0  0  0  0  0  0  0  0  0  0  0
  -28.4580   -0.8021   -5.1281 C   0  0  0  0  0  0  0  0  0  0  0  0
  -27.2367   -0.7098   -5.0511 O   0  0  0  0  0  0  0  0  0  0  0  0
  -28.8749    1.0346   -6.5232 C   0  0  0  0  0  0  0  0  0  0  0  0
  -29.2910    0.2348   -5.4179 O   0  0  0  0  0  0  0  0  0  0  0  0
  -30.1810   -6.1972   -6.5196 N   0  0  0  0  0  0  0  0  0  0  0  0
  -29.4637   -5.8162   -7.1116 H   0  0  0  0  0  0  0  0  0  0  0  0
  -30.3269   -7.5843   -6.7140 C   0  0  0  0  0  0  0  0  0  0  0  0
  -29.5240   -8.5290   -6.0612 C   0  0  0  0  0  0  0  0  0  0  0  0
  -29.7045   -9.8959   -6.2789 C   0  0  0  0  0  0  0  0  0  0  0  0
  -30.7039  -10.3395   -7.1425 C   0  0  0  0  0  0  0  0  0  0  0  0
  -31.5077   -9.4065   -7.7871 C   0  0  0  0  0  0  0  0  0  0  0  0
  -32.4965   -9.7934   -8.6429 O   0  0  0  0  0  0  0  0  0  0  0  0
  -31.3262   -8.0429   -7.5807 C   0  0  0  0  0  0  0  0  0  0  0  0
  -32.4990  -10.7635   -8.6936 H   0  0  0  0  0  0  0  0  0  0  0  0
 13 14  1  0  0  0
 14 11  1  0  0  0
 11 12  2  0  0  0
 11  1  1  0  0  0
  1  2  2  0  0  0
  1  9  1  0  0  0
  2  3  1  0  0  0
  3  4  1  0  0  0
  3  8  1  0  0  0
  4  5  2  0  0  0
  5  6  1  0  0  0
  6  7  2  0  0  0
  7 15  1  0  0  0
  7  8  1  0  0  0
 15 17  1  0  0  0
 15 16  1  0  0  0
 17 18  1  0  0  0
 17 23  2  0  0  0
 18 19  2  0  0  0
 19 20  1  0  0  0
 20 21  2  0  0  0
 21 22  1  0  0  0
 21 23  1  0  0  0
 22 24  1  0  0  0
  8  9  2  0  0  0
  9 10  1  0  0  0
M  END
> <minimizedAffinity>
-7.48125

$$$$
