CHEMBL25425


 32 35  0  0  0  0  0  0  0  0999 V2000
  -28.3240   -3.2630   -7.9956 C   0  0  0  0  0  0  0  0  0  0  0  0
  -29.0491   -2.9154   -6.8555 C   0  0  0  0  0  0  0  0  0  0  0  0
  -28.8840   -1.6799   -6.2296 C   0  0  0  0  0  0  0  0  0  0  0  0
  -29.2939   -1.3844   -4.9157 C   0  0  0  0  0  0  0  0  0  0  0  0
  -29.0849   -0.1756   -4.3638 N   0  0  0  0  0  0  0  0  0  0  0  0
  -28.4509    0.7292   -5.1218 C   0  0  0  0  0  0  0  0  0  0  0  0
  -27.9794    0.5419   -6.3470 N   0  0  0  0  0  0  0  0  0  0  0  0
  -28.1714   -0.6727   -6.8713 C   0  0  0  0  0  0  0  0  0  0  0  0
  -27.5925   -0.9638   -8.0923 C   0  0  0  0  0  0  0  0  0  0  0  0
  -27.5684   -2.2645   -8.6467 C   0  0  0  0  0  0  0  0  0  0  0  0
  -28.9153   -5.5546   -7.6380 C   0  0  0  0  0  0  0  0  0  0  0  0
  -28.3199   -4.5495   -8.4709 O   0  0  0  0  0  0  0  0  0  0  0  0
  -29.8312   -2.4180   -4.0970 N   0  0  0  0  0  0  0  0  0  0  0  0
  -29.9495   -2.1047   -3.1415 H   0  0  0  0  0  0  0  0  0  0  0  0
  -29.4649   -3.7803   -4.1781 C   0  0  0  0  0  0  0  0  0  0  0  0
  -28.1195   -4.1692   -4.1247 C   0  0  0  0  0  0  0  0  0  0  0  0
  -27.7754   -5.5184   -4.0782 C   0  0  0  0  0  0  0  0  0  0  0  0
  -28.7674   -6.4913   -4.0983 C   0  0  0  0  0  0  0  0  0  0  0  0
  -28.3400   -8.1523   -3.9520 Cl  0  0  0  0  0  0  0  0  0  0  0  0
  -30.1078   -6.1310   -4.2230 C   0  0  0  0  0  0  0  0  0  0  0  0
  -30.4382   -4.7771   -4.2698 C   0  0  0  0  0  0  0  0  0  0  0  0
  -31.7326   -4.4290   -4.3753 F   0  0  0  0  0  0  0  0  0  0  0  0
  -26.8018   -2.5694   -9.7657 O   0  0  0  0  0  0  0  0  0  0  0  0
  -27.0126   -1.6526  -10.8723 C   0  0  0  0  0  0  0  0  0  0  0  0
  -25.7525   -0.9741  -11.4098 C   0  0  0  0  0  0  0  0  0  0  0  0
  -24.8234   -1.9699  -12.1776 C   0  0  0  0  0  0  0  0  0  0  0  0
  -23.3679   -1.8916  -11.6838 C   0  0  0  0  0  0  0  0  0  0  0  0
  -22.6973   -0.5869  -12.1084 C   0  0  0  0  0  0  0  0  0  0  0  0
  -22.7042   -0.3995  -13.5651 N   0  0  0  0  0  0  0  0  0  0  0  0
  -22.1602    0.9233  -13.8960 C   0  0  0  0  0  0  0  0  0  0  0  0
  -24.0359   -0.5506  -14.1654 C   0  0  0  0  0  0  0  0  0  0  0  0
  -24.7741   -1.8131  -13.7097 C   0  0  0  0  0  0  0  0  0  0  0  0
 11 12  1  0  0  0
 12  1  1  0  0  0
  1  2  1  0  0  0
  1 10  2  0  0  0
  2  3  2  0  0  0
  3  4  1  0  0  0
  3  8  1  0  0  0
  4 13  1  0  0  0
  4  5  2  0  0  0
 13 15  1  0  0  0
 13 14  1  0  0  0
 15 16  1  0  0  0
 15 21  2  0  0  0
 16 17  2  0  0  0
 17 18  1  0  0  0
 18 19  1  0  0  0
 18 20  2  0  0  0
 20 21  1  0  0  0
 21 22  1  0  0  0
  5  6  1  0  0  0
  6  7  2  0  0  0
  7  8  1  0  0  0
  8  9  2  0  0  0
  9 10  1  0  0  0
 10 23  1  0  0  0
 23 24  1  0  0  0
 24 25  1  0  0  0
 25 26  1  0  0  0
 26 27  1  0  0  0
 26 32  1  0  0  0
 27 28  1  0  0  0
 28 29  1  0  0  0
 29 30  1  0  0  0
 29 31  1  0  0  0
 31 32  1  0  0  0
M  END
> <minimizedAffinity>
-9.35007

$$$$
