CHEMBL1271667


 23 25  0  0  0  0  0  0  0  0999 V2000
  -15.2662   -0.2946  -12.1067 O   0  0  0  0  0  0  0  0  0  0  0  0
  -15.5282   -1.1422  -12.9573 C   0  0  0  0  0  0  0  0  0  0  0  0
  -15.7373   -0.8910  -14.2951 N   0  0  0  0  0  0  0  0  0  0  0  0
  -16.0768   -1.6489  -14.8917 H   0  0  0  0  0  0  0  0  0  0  0  0
  -15.6742    0.3639  -14.9540 C   0  0  0  0  0  0  0  0  0  0  0  0
  -14.4667    0.9176  -15.4001 C   0  0  0  0  0  0  0  0  0  0  0  0
  -14.4448    2.1664  -16.0118 C   0  0  0  0  0  0  0  0  0  0  0  0
  -15.6303    2.8736  -16.1742 C   0  0  0  0  0  0  0  0  0  0  0  0
  -16.8480    2.3246  -15.7420 C   0  0  0  0  0  0  0  0  0  0  0  0
  -18.0461    3.0363  -15.8822 C   0  0  0  0  0  0  0  0  0  0  0  0
  -19.2383    2.4785  -15.4407 C   0  0  0  0  0  0  0  0  0  0  0  0
  -19.1944    1.2181  -14.8797 C   0  0  0  0  0  0  0  0  0  0  0  0
  -18.0594    0.5002  -14.7223 N   0  0  0  0  0  0  0  0  0  0  0  0
  -16.8894    1.0468  -15.1399 C   0  0  0  0  0  0  0  0  0  0  0  0
  -15.6780   -2.5479  -12.4937 C   0  0  0  0  0  0  0  0  0  0  0  0
  -15.5540   -3.5767  -13.4387 C   0  0  0  0  0  0  0  0  0  0  0  0
  -15.7100   -4.9002  -13.0411 C   0  0  0  0  0  0  0  0  0  0  0  0
  -15.5488   -6.3025  -14.2897 Br  0  0  0  0  0  0  0  0  0  0  0  0
  -15.9878   -5.1623  -11.7091 C   0  0  0  0  0  0  0  0  0  0  0  0
  -16.1127   -4.1991  -10.7639 N   0  0  0  0  0  0  0  0  0  0  0  0
  -15.9526   -2.9279  -11.1875 C   0  0  0  0  0  0  0  0  0  0  0  0
  -16.0934   -2.0375  -10.1748 O   0  0  0  0  0  0  0  0  0  0  0  0
  -16.3029   -2.6432   -9.4387 H   0  0  0  0  0  0  0  0  0  0  0  0
  1  2  2  0  0  0
  2  3  1  0  0  0
  2 15  1  0  0  0
  3  5  1  0  0  0
  3  4  1  0  0  0
  5  6  1  0  0  0
  5 14  2  0  0  0
  6  7  2  0  0  0
  7  8  1  0  0  0
  8  9  2  0  0  0
  9 10  1  0  0  0
  9 14  1  0  0  0
 10 11  2  0  0  0
 11 12  1  0  0  0
 12 13  2  0  0  0
 13 14  1  0  0  0
 15 16  1  0  0  0
 15 21  2  0  0  0
 16 17  2  0  0  0
 17 18  1  0  0  0
 17 19  1  0  0  0
 19 20  2  0  0  0
 20 21  1  0  0  0
 21 22  1  0  0  0
 22 23  1  0  0  0
M  END
> <minimizedAffinity>
-8.08019

$$$$
