CHEMBL1241299


 22 24  0  0  0  0  0  0  0  0999 V2000
  -15.3364    4.8438  -17.2859 C   0  0  0  0  0  0  0  0  0  0  0  0
  -15.9247    3.7137  -16.6095 N   0  0  0  0  0  0  0  0  0  0  0  0
  -17.2569    3.6523  -16.4261 N   0  0  0  0  0  0  0  0  0  0  0  0
  -17.4428    2.5186  -15.7204 C   0  0  0  0  0  0  0  0  0  0  0  0
  -16.1972    1.8257  -15.5196 C   0  0  0  0  0  0  0  0  0  0  0  0
  -15.7183    0.6471  -14.9294 C   0  0  0  0  0  0  0  0  0  0  0  0
  -16.4993   -0.3407  -14.3441 N   0  0  0  0  0  0  0  0  0  0  0  0
  -14.3886    0.4169  -14.9292 N   0  0  0  0  0  0  0  0  0  0  0  0
  -13.5734    1.3225  -15.5029 C   0  0  0  0  0  0  0  0  0  0  0  0
  -13.9153    2.4628  -16.1177 N   0  0  0  0  0  0  0  0  0  0  0  0
  -15.2437    2.6552  -16.0880 C   0  0  0  0  0  0  0  0  0  0  0  0
  -17.3923   -0.4959  -14.7911 H   0  0  0  0  0  0  0  0  0  0  0  0
  -15.9408   -1.1730  -14.1864 H   0  0  0  0  0  0  0  0  0  0  0  0
  -18.7940    2.1603  -15.2656 C   0  0  0  0  0  0  0  0  0  0  0  0
  -19.2022    0.8203  -15.1952 C   0  0  0  0  0  0  0  0  0  0  0  0
  -20.4992    0.4808  -14.7955 C   0  0  0  0  0  0  0  0  0  0  0  0
  -21.3821    1.4794  -14.3999 C   0  0  0  0  0  0  0  0  0  0  0  0
  -23.1223    0.9991  -13.8308 Br  0  0  0  0  0  0  0  0  0  0  0  0
  -20.9687    2.8114  -14.4074 C   0  0  0  0  0  0  0  0  0  0  0  0
  -21.7821    3.8267  -13.9843 O   0  0  0  0  0  0  0  0  0  0  0  0
  -19.6920    3.1578  -14.8493 C   0  0  0  0  0  0  0  0  0  0  0  0
  -22.5974    3.4217  -13.6385 H   0  0  0  0  0  0  0  0  0  0  0  0
  1  2  1  0  0  0
  2  3  1  0  0  0
  2 11  1  0  0  0
  3  4  2  0  0  0
  4 14  1  0  0  0
  4  5  1  0  0  0
 14 15  1  0  0  0
 14 21  2  0  0  0
 15 16  2  0  0  0
 16 17  1  0  0  0
 17 18  1  0  0  0
 17 19  2  0  0  0
 19 20  1  0  0  0
 19 21  1  0  0  0
 20 22  1  0  0  0
  5  6  1  0  0  0
  5 11  2  0  0  0
  6  7  1  0  0  0
  6  8  2  0  0  0
  7 12  1  0  0  0
  7 13  1  0  0  0
  8  9  1  0  0  0
  9 10  2  0  0  0
 10 11  1  0  0  0
M  END
> <minimizedAffinity>
-7.99034

$$$$
