CHEMBL3809608


 35 37  0  0  0  0  0  0  0  0999 V2000
  -18.8168    2.2948  -15.1780 C   0  0  0  0  0  0  0  0  0  0  0  0
  -17.8016    1.3447  -15.0078 C   0  0  0  0  0  0  0  0  0  0  0  0
  -16.4756    1.6482  -15.2895 C   0  0  0  0  0  0  0  0  0  0  0  0
  -16.1358    2.9173  -15.7372 C   0  0  0  0  0  0  0  0  0  0  0  0
  -17.1457    3.8684  -15.9434 C   0  0  0  0  0  0  0  0  0  0  0  0
  -18.4845    3.5581  -15.6690 C   0  0  0  0  0  0  0  0  0  0  0  0
  -22.0861    0.9284  -14.3104 C   0  0  0  0  0  0  0  0  0  0  0  0
  -20.7879    0.7116  -14.8070 C   0  0  0  0  0  0  0  0  0  0  0  0
  -20.1605    1.9371  -14.7627 C   0  0  0  0  0  0  0  0  0  0  0  0
  -21.0952    2.7849  -14.2337 N   0  0  0  0  0  0  0  0  0  0  0  0
  -22.3133    2.2209  -14.0722 N   0  0  0  0  0  0  0  0  0  0  0  0
  -20.9808    3.7633  -13.9938 H   0  0  0  0  0  0  0  0  0  0  0  0
  -23.2010   -0.5817  -12.8414 C   0  0  0  0  0  0  0  0  0  0  0  0
  -22.5093   -0.2668  -11.8718 O   0  0  0  0  0  0  0  0  0  0  0  0
  -23.0555   -0.0236  -14.0985 N   0  0  0  0  0  0  0  0  0  0  0  0
  -23.8644    0.0858  -14.6889 H   0  0  0  0  0  0  0  0  0  0  0  0
  -25.0902   -1.4167  -11.4345 C   0  0  0  0  0  0  0  0  0  0  0  0
  -24.2810   -1.6728  -12.7198 C   0  0  0  0  0  0  0  0  0  0  0  0
  -23.5864   -3.0368  -12.6093 C   0  0  0  0  0  0  0  0  0  0  0  0
  -25.2482   -1.6666  -13.9103 C   0  0  0  0  0  0  0  0  0  0  0  0
  -14.8142    3.3083  -15.9798 N   0  0  0  0  0  0  0  0  0  0  0  0
  -13.7396    2.5366  -16.3359 C   0  0  0  0  0  0  0  0  0  0  0  0
  -13.7356    1.3217  -16.5181 O   0  0  0  0  0  0  0  0  0  0  0  0
  -12.5711    3.2101  -16.5749 N   0  0  0  0  0  0  0  0  0  0  0  0
  -14.6060    4.2915  -15.8364 H   0  0  0  0  0  0  0  0  0  0  0  0
  -11.8412    2.6461  -16.9707 H   0  0  0  0  0  0  0  0  0  0  0  0
  -12.3345    4.5564  -16.3783 C   0  0  0  0  0  0  0  0  0  0  0  0
  -12.2442    5.5101  -17.4047 C   0  0  0  0  0  0  0  0  0  0  0  0
  -12.0689    6.7052  -16.7432 C   0  0  0  0  0  0  0  0  0  0  0  0
  -12.0104    6.4650  -15.4085 O   0  0  0  0  0  0  0  0  0  0  0  0
  -12.1836    5.1253  -15.1784 N   0  0  0  0  0  0  0  0  0  0  0  0
  -11.9649    8.1304  -17.1923 C   0  0  0  0  0  0  0  0  0  0  0  0
  -11.9161    9.0372  -15.9485 C   0  0  0  0  0  0  0  0  0  0  0  0
  -10.6969    8.3719  -18.0300 C   0  0  0  0  0  0  0  0  0  0  0  0
  -13.1987    8.4735  -18.0429 C   0  0  0  0  0  0  0  0  0  0  0  0
 17 18  1  0  0  0
 18 19  1  0  0  0
 18 20  1  0  0  0
 18 13  1  0  0  0
 13 14  2  0  0  0
 13 15  1  0  0  0
 15  7  1  0  0  0
 15 16  1  0  0  0
  7  8  1  0  0  0
  7 11  2  0  0  0
  8  9  2  0  0  0
  9  1  1  0  0  0
  9 10  1  0  0  0
  1  2  1  0  0  0
  1  6  2  0  0  0
  2  3  2  0  0  0
  3  4  1  0  0  0
  4 21  1  0  0  0
  4  5  2  0  0  0
 21 22  1  0  0  0
 21 25  1  0  0  0
 22 23  2  0  0  0
 22 24  1  0  0  0
 24 27  1  0  0  0
 24 26  1  0  0  0
 27 28  1  0  0  0
 27 31  2  0  0  0
 28 29  2  0  0  0
 29 32  1  0  0  0
 29 30  1  0  0  0
 32 33  1  0  0  0
 32 34  1  0  0  0
 32 35  1  0  0  0
 30 31  1  0  0  0
  5  6  1  0  0  0
 10 11  1  0  0  0
 10 12  1  0  0  0
M  END
> <minimizedAffinity>
-8.69341

$$$$
