CHEMBL400400


 22 24  0  0  0  0  0  0  0  0999 V2000
  -29.6691   -7.9413   -7.3167 C   0  0  0  0  0  0  0  0  0  0  0  0
  -30.4408   -8.8706   -7.8970 C   0  0  0  0  0  0  0  0  0  0  0  0
  -31.9019   -9.1169   -7.8017 C   0  0  0  0  0  0  0  0  0  0  0  0
  -32.7530   -8.4643   -7.2321 O   0  0  0  0  0  0  0  0  0  0  0  0
  -32.0732  -10.3005   -8.4929 N   0  0  0  0  0  0  0  0  0  0  0  0
  -30.9358  -10.8202   -9.0574 N   0  0  0  0  0  0  0  0  0  0  0  0
  -29.9549   -9.9973   -8.7595 C   0  0  0  0  0  0  0  0  0  0  0  0
  -32.9711  -10.7599   -8.6082 H   0  0  0  0  0  0  0  0  0  0  0  0
  -31.7003   -5.6026   -3.4870 C   0  0  0  0  0  0  0  0  0  0  0  0
  -30.9432   -5.7374   -4.7541 C   0  0  0  0  0  0  0  0  0  0  0  0
  -30.3084   -4.8018   -5.5381 C   0  0  0  0  0  0  0  0  0  0  0  0
  -29.7288   -5.4816   -6.6439 C   0  0  0  0  0  0  0  0  0  0  0  0
  -28.9493   -4.8441   -7.7422 C   0  0  0  0  0  0  0  0  0  0  0  0
  -30.0257   -6.8343   -6.4988 C   0  0  0  0  0  0  0  0  0  0  0  0
  -30.7746   -6.9596   -5.3545 N   0  0  0  0  0  0  0  0  0  0  0  0
  -31.1577   -7.8269   -4.9897 H   0  0  0  0  0  0  0  0  0  0  0  0
  -28.6240  -10.2353   -9.2459 C   0  0  0  0  0  0  0  0  0  0  0  0
  -27.2529  -10.3423   -8.2180 S   0  0  0  0  0  0  0  0  0  0  0  0
  -26.1994  -10.6551   -9.4657 N   0  0  0  0  0  0  0  0  0  0  0  0
  -26.7778  -10.5807  -10.6489 N   0  0  0  0  0  0  0  0  0  0  0  0
  -28.1370  -10.2967  -10.5488 C   0  0  0  0  0  0  0  0  0  0  0  0
  -28.8896  -10.1113  -11.8154 C   0  0  0  0  0  0  0  0  0  0  0  0
  9 10  1  0  0  0
 10 11  2  0  0  0
 10 15  1  0  0  0
 11 12  1  0  0  0
 12 13  1  0  0  0
 12 14  2  0  0  0
 14  1  1  0  0  0
 14 15  1  0  0  0
  1  2  2  0  0  0
  2  3  1  0  0  0
  2  7  1  0  0  0
  3  4  2  0  0  0
  3  5  1  0  0  0
  5  6  1  0  0  0
  5  8  1  0  0  0
  6  7  2  0  0  0
  7 17  1  0  0  0
 17 18  1  0  0  0
 17 21  2  0  0  0
 18 19  1  0  0  0
 19 20  2  0  0  0
 20 21  1  0  0  0
 21 22  1  0  0  0
 15 16  1  0  0  0
M  END
> <minimizedAffinity>
-7.76849

$$$$
