CHEMBL515109


 42 46  0  0  0  0  0  0  0  0999 V2000
  -16.7077    1.0117  -15.4896 N   0  0  0  0  0  0  0  0  0  0  0  0
  -17.2330    2.2946  -15.5498 C   0  0  0  0  0  0  0  0  0  0  0  0
  -16.5842    3.2981  -15.8332 O   0  0  0  0  0  0  0  0  0  0  0  0
  -17.3523    0.2731  -15.2378 H   0  0  0  0  0  0  0  0  0  0  0  0
  -11.3818   -0.7895  -16.6329 C   0  0  0  0  0  0  0  0  0  0  0  0
  -12.7653   -0.3196  -16.2756 C   0  0  0  0  0  0  0  0  0  0  0  0
  -13.5299    0.2670  -17.2967 C   0  0  0  0  0  0  0  0  0  0  0  0
  -14.8280    0.7151  -17.0623 C   0  0  0  0  0  0  0  0  0  0  0  0
  -15.3885    0.6125  -15.7967 C   0  0  0  0  0  0  0  0  0  0  0  0
  -14.6155    0.0590  -14.7661 C   0  0  0  0  0  0  0  0  0  0  0  0
  -13.3058   -0.4263  -14.9757 C   0  0  0  0  0  0  0  0  0  0  0  0
  -12.5877   -1.0874  -13.9494 N   0  0  0  0  0  0  0  0  0  0  0  0
  -11.7310   -0.6303  -13.6663 H   0  0  0  0  0  0  0  0  0  0  0  0
  -12.9358   -2.2332  -13.3111 C   0  0  0  0  0  0  0  0  0  0  0  0
  -13.1794   -2.3578  -12.0254 N   0  0  0  0  0  0  0  0  0  0  0  0
  -13.4755   -3.6606  -11.7048 C   0  0  0  0  0  0  0  0  0  0  0  0
  -13.4635   -4.5680  -12.7465 C   0  0  0  0  0  0  0  0  0  0  0  0
  -13.1290   -3.7080  -14.1995 S   0  0  0  0  0  0  0  0  0  0  0  0
  -13.6582   -6.0218  -12.6940 C   0  0  0  0  0  0  0  0  0  0  0  0
  -12.8872   -6.8041  -11.8212 C   0  0  0  0  0  0  0  0  0  0  0  0
  -13.0685   -8.1847  -11.7560 C   0  0  0  0  0  0  0  0  0  0  0  0
  -14.0259   -8.7572  -12.5719 C   0  0  0  0  0  0  0  0  0  0  0  0
  -14.7960   -8.0496  -13.4244 N   0  0  0  0  0  0  0  0  0  0  0  0
  -14.5953   -6.7061  -13.4654 C   0  0  0  0  0  0  0  0  0  0  0  0
  -18.6593    2.4009  -15.2492 C   0  0  0  0  0  0  0  0  0  0  0  0
  -19.4546    3.5064  -15.4914 C   0  0  0  0  0  0  0  0  0  0  0  0
  -20.8028    3.3076  -15.0871 C   0  0  0  0  0  0  0  0  0  0  0  0
  -21.0202    2.0463  -14.5721 C   0  0  0  0  0  0  0  0  0  0  0  0
  -19.5699    1.1314  -14.5524 S   0  0  0  0  0  0  0  0  0  0  0  0
  -22.2959    1.5185  -14.0930 C   0  0  0  0  0  0  0  0  0  0  0  0
  -23.1217    2.2556  -13.5617 O   0  0  0  0  0  0  0  0  0  0  0  0
  -22.4962    0.1743  -14.3493 N   0  0  0  0  0  0  0  0  0  0  0  0
  -21.7594   -0.3111  -14.8420 H   0  0  0  0  0  0  0  0  0  0  0  0
  -23.6249   -0.6090  -14.0294 C   0  0  0  0  0  0  0  0  0  0  0  0
  -24.6690   -0.8293  -14.9330 C   0  0  0  0  0  0  0  0  0  0  0  0
  -25.7970   -1.5549  -14.5500 C   0  0  0  0  0  0  0  0  0  0  0  0
  -25.8954   -2.0572  -13.2573 C   0  0  0  0  0  0  0  0  0  0  0  0
  -24.8589   -1.8451  -12.3475 C   0  0  0  0  0  0  0  0  0  0  0  0
  -23.6949   -1.1668  -12.7325 C   0  0  0  0  0  0  0  0  0  0  0  0
  -22.6975   -0.9115  -11.7602 N   0  0  0  0  0  0  0  0  0  0  0  0
  -22.7523   -1.5689  -10.9855 H   0  0  0  0  0  0  0  0  0  0  0  0
  -21.7629   -0.9191  -12.1543 H   0  0  0  0  0  0  0  0  0  0  0  0
  5  6  1  0  0  0
  6  7  1  0  0  0
  6 11  2  0  0  0
  7  8  2  0  0  0
  8  9  1  0  0  0
  9  1  1  0  0  0
  9 10  2  0  0  0
  1  2  1  0  0  0
  1  4  1  0  0  0
  2  3  2  0  0  0
  2 25  1  0  0  0
 25 26  2  0  0  0
 25 29  1  0  0  0
 26 27  1  0  0  0
 27 28  2  0  0  0
 28 30  1  0  0  0
 28 29  1  0  0  0
 30 31  2  0  0  0
 30 32  1  0  0  0
 32 34  1  0  0  0
 32 33  1  0  0  0
 34 35  1  0  0  0
 34 39  2  0  0  0
 35 36  2  0  0  0
 36 37  1  0  0  0
 37 38  2  0  0  0
 38 39  1  0  0  0
 39 40  1  0  0  0
 40 41  1  0  0  0
 40 42  1  0  0  0
 10 11  1  0  0  0
 11 12  1  0  0  0
 12 14  1  0  0  0
 12 13  1  0  0  0
 14 15  2  0  0  0
 14 18  1  0  0  0
 15 16  1  0  0  0
 16 17  2  0  0  0
 17 19  1  0  0  0
 17 18  1  0  0  0
 19 20  1  0  0  0
 19 24  2  0  0  0
 20 21  2  0  0  0
 21 22  1  0  0  0
 22 23  2  0  0  0
 23 24  1  0  0  0
M  END
> <minimizedAffinity>
-9.22571

$$$$
