CHEMBL385178


 32 35  0  0  0  0  0  0  0  0999 V2000
  -16.3533    0.7829  -13.5587 O   0  0  0  0  0  0  0  0  0  0  0  0
  -16.2957    1.2638  -14.6860 C   0  0  0  0  0  0  0  0  0  0  0  0
  -17.3690    1.6837  -15.4549 N   0  0  0  0  0  0  0  0  0  0  0  0
  -17.1579    2.0600  -16.3759 H   0  0  0  0  0  0  0  0  0  0  0  0
  -18.7281    1.6685  -15.0605 C   0  0  0  0  0  0  0  0  0  0  0  0
  -19.3754    2.7738  -14.5026 C   0  0  0  0  0  0  0  0  0  0  0  0
  -20.7209    2.7138  -14.1333 C   0  0  0  0  0  0  0  0  0  0  0  0
  -21.4635    1.5615  -14.3744 C   0  0  0  0  0  0  0  0  0  0  0  0
  -20.8217    0.4371  -14.8964 C   0  0  0  0  0  0  0  0  0  0  0  0
  -19.4622    0.4903  -15.2424 C   0  0  0  0  0  0  0  0  0  0  0  0
  -22.8033    1.4343  -14.0817 O   0  0  0  0  0  0  0  0  0  0  0  0
  -23.2788    0.2442  -13.5709 C   0  0  0  0  0  0  0  0  0  0  0  0
  -24.1858   -0.5886  -14.2346 C   0  0  0  0  0  0  0  0  0  0  0  0
  -24.6354   -1.7628  -13.6277 C   0  0  0  0  0  0  0  0  0  0  0  0
  -24.1358   -2.1393  -12.3823 C   0  0  0  0  0  0  0  0  0  0  0  0
  -23.1839   -1.3440  -11.7449 C   0  0  0  0  0  0  0  0  0  0  0  0
  -22.7569   -0.1532  -12.3376 C   0  0  0  0  0  0  0  0  0  0  0  0
  -14.9415    1.4288  -15.2654 C   0  0  0  0  0  0  0  0  0  0  0  0
  -14.5775    2.7411  -15.6072 C   0  0  0  0  0  0  0  0  0  0  0  0
  -13.3199    2.9998  -16.1248 C   0  0  0  0  0  0  0  0  0  0  0  0
  -12.4643    1.9295  -16.2787 C   0  0  0  0  0  0  0  0  0  0  0  0
  -12.7771    0.6590  -15.9368 N   0  0  0  0  0  0  0  0  0  0  0  0
  -13.9990    0.3997  -15.4062 C   0  0  0  0  0  0  0  0  0  0  0  0
  -14.3169   -0.9328  -15.0675 N   0  0  0  0  0  0  0  0  0  0  0  0
  -15.3305   -1.0478  -15.1111 H   0  0  0  0  0  0  0  0  0  0  0  0
  -13.8481   -1.3674  -13.7449 C   0  0  0  0  0  0  0  0  0  0  0  0
  -14.8396   -2.3502  -13.1640 C   0  0  0  0  0  0  0  0  0  0  0  0
  -15.2068   -2.2768  -11.8165 C   0  0  0  0  0  0  0  0  0  0  0  0
  -16.0641   -3.2392  -11.3073 C   0  0  0  0  0  0  0  0  0  0  0  0
  -16.5685   -4.2558  -12.0369 N   0  0  0  0  0  0  0  0  0  0  0  0
  -16.1978   -4.3148  -13.3341 C   0  0  0  0  0  0  0  0  0  0  0  0
  -15.3478   -3.3998  -13.9357 C   0  0  0  0  0  0  0  0  0  0  0  0
  1  2  2  0  0  0
  2  3  1  0  0  0
  2 18  1  0  0  0
  3  5  1  0  0  0
  3  4  1  0  0  0
  5  6  1  0  0  0
  5 10  2  0  0  0
  6  7  2  0  0  0
  7  8  1  0  0  0
  8 11  1  0  0  0
  8  9  2  0  0  0
 11 12  1  0  0  0
 12 13  1  0  0  0
 12 17  2  0  0  0
 13 14  2  0  0  0
 14 15  1  0  0  0
 15 16  2  0  0  0
 16 17  1  0  0  0
  9 10  1  0  0  0
 18 19  1  0  0  0
 18 23  2  0  0  0
 19 20  2  0  0  0
 20 21  1  0  0  0
 21 22  2  0  0  0
 22 23  1  0  0  0
 23 24  1  0  0  0
 24 26  1  0  0  0
 24 25  1  0  0  0
 26 27  1  0  0  0
 27 28  1  0  0  0
 27 32  2  0  0  0
 28 29  2  0  0  0
 29 30  1  0  0  0
 30 31  2  0  0  0
 31 32  1  0  0  0
M  END
> <minimizedAffinity>
-9.24196

$$$$
