CHEMBL202714


 24 26  0  0  0  0  0  0  0  0999 V2000
  -27.5717   -3.7225   -8.6790 O   0  0  0  0  0  0  0  0  0  0  0  0
  -27.7721   -2.5773   -8.2842 C   0  0  0  0  0  0  0  0  0  0  0  0
  -27.4577   -1.4577   -9.0428 N   0  0  0  0  0  0  0  0  0  0  0  0
  -27.4816   -0.5646   -8.5657 H   0  0  0  0  0  0  0  0  0  0  0  0
  -26.9575   -1.4876  -10.3661 C   0  0  0  0  0  0  0  0  0  0  0  0
  -27.7890   -1.5370  -11.4923 C   0  0  0  0  0  0  0  0  0  0  0  0
  -27.2532   -1.6258  -12.7793 C   0  0  0  0  0  0  0  0  0  0  0  0
  -25.8726   -1.6544  -12.9605 C   0  0  0  0  0  0  0  0  0  0  0  0
  -25.2799   -1.8007  -14.5741 Cl  0  0  0  0  0  0  0  0  0  0  0  0
  -25.0316   -1.5673  -11.8458 C   0  0  0  0  0  0  0  0  0  0  0  0
  -23.3096   -1.5965  -11.9926 Cl  0  0  0  0  0  0  0  0  0  0  0  0
  -25.5735   -1.4693  -10.5542 C   0  0  0  0  0  0  0  0  0  0  0  0
  -28.3241   -2.3434   -6.9580 C   0  0  0  0  0  0  0  0  0  0  0  0
  -27.8124   -1.0868   -5.9131 S   0  0  0  0  0  0  0  0  0  0  0  0
  -28.9800   -1.5859   -4.7611 C   0  0  0  0  0  0  0  0  0  0  0  0
  -29.7082   -2.6295   -5.0892 N   0  0  0  0  0  0  0  0  0  0  0  0
  -29.3421   -3.0743   -6.3512 C   0  0  0  0  0  0  0  0  0  0  0  0
  -30.0357   -4.2603   -6.9628 C   0  0  0  0  0  0  0  0  0  0  0  0
  -29.4364   -5.6245   -6.6326 C   0  0  0  0  0  0  0  0  0  0  0  0
  -29.8355   -6.0720   -5.2671 C   0  0  0  0  0  0  0  0  0  0  0  0
  -29.0627   -6.7733   -4.3136 C   0  0  0  0  0  0  0  0  0  0  0  0
  -29.7308   -6.9916   -3.1790 N   0  0  0  0  0  0  0  0  0  0  0  0
  -30.9771   -6.4200   -3.3746 O   0  0  0  0  0  0  0  0  0  0  0  0
  -31.0306   -5.8747   -4.6151 C   0  0  0  0  0  0  0  0  0  0  0  0
  1  2  2  0  0  0
  2  3  1  0  0  0
  2 13  1  0  0  0
  3  5  1  0  0  0
  3  4  1  0  0  0
  5  6  1  0  0  0
  5 12  2  0  0  0
  6  7  2  0  0  0
  7  8  1  0  0  0
  8  9  1  0  0  0
  8 10  2  0  0  0
 10 11  1  0  0  0
 10 12  1  0  0  0
 13 14  1  0  0  0
 13 17  2  0  0  0
 14 15  1  0  0  0
 15 16  2  0  0  0
 16 17  1  0  0  0
 17 18  1  0  0  0
 18 19  1  0  0  0
 19 20  1  0  0  0
 20 21  1  0  0  0
 20 24  2  0  0  0
 21 22  2  0  0  0
 22 23  1  0  0  0
 23 24  1  0  0  0
M  END
> <minimizedAffinity>
-8.03294

$$$$
