CHEMBL3926927


 28 30  0  0  0  0  0  0  0  0999 V2000
  -23.0525   -0.7743  -13.5578 C   0  0  0  0  0  0  0  0  0  0  0  0
  -23.1161   -0.6992  -12.1629 C   0  0  0  0  0  0  0  0  0  0  0  0
  -24.3192   -0.9469  -11.4939 C   0  0  0  0  0  0  0  0  0  0  0  0
  -25.4838   -1.2200  -12.2196 C   0  0  0  0  0  0  0  0  0  0  0  0
  -25.4413   -1.1889  -13.6199 C   0  0  0  0  0  0  0  0  0  0  0  0
  -24.2296   -0.9738  -14.2839 C   0  0  0  0  0  0  0  0  0  0  0  0
  -26.7849   -1.5228  -11.5607 C   0  0  0  0  0  0  0  0  0  0  0  0
  -27.7730   -1.7722  -12.2426 O   0  0  0  0  0  0  0  0  0  0  0  0
  -26.8220   -1.5589  -10.0715 C   0  0  0  0  0  0  0  0  0  0  0  0
  -27.9242   -1.9921   -9.4423 C   0  0  0  0  0  0  0  0  0  0  0  0
  -28.0073   -2.0188   -7.9827 C   0  0  0  0  0  0  0  0  0  0  0  0
  -27.6568   -0.8817   -7.2469 C   0  0  0  0  0  0  0  0  0  0  0  0
  -27.7299   -0.8969   -5.8519 C   0  0  0  0  0  0  0  0  0  0  0  0
  -28.1491   -2.0475   -5.1851 C   0  0  0  0  0  0  0  0  0  0  0  0
  -28.4954   -3.1853   -5.9122 C   0  0  0  0  0  0  0  0  0  0  0  0
  -28.4235   -3.1725   -7.3096 C   0  0  0  0  0  0  0  0  0  0  0  0
  -21.9092   -0.5932  -14.3001 O   0  0  0  0  0  0  0  0  0  0  0  0
  -19.6763    2.2454  -15.0033 C   0  0  0  0  0  0  0  0  0  0  0  0
  -20.1068    0.9270  -14.9732 C   0  0  0  0  0  0  0  0  0  0  0  0
  -21.3661    0.6652  -14.4444 C   0  0  0  0  0  0  0  0  0  0  0  0
  -22.1845    1.7300  -14.0745 C   0  0  0  0  0  0  0  0  0  0  0  0
  -21.6836    3.0179  -14.1796 C   0  0  0  0  0  0  0  0  0  0  0  0
  -20.4381    3.3066  -14.6139 N   0  0  0  0  0  0  0  0  0  0  0  0
  -16.6489    4.3373  -15.8758 C   0  0  0  0  0  0  0  0  0  0  0  0
  -17.9441    3.8826  -15.4515 N   0  0  0  0  0  0  0  0  0  0  0  0
  -18.2776    2.5457  -15.4494 C   0  0  0  0  0  0  0  0  0  0  0  0
  -17.5035    1.6497  -15.7680 O   0  0  0  0  0  0  0  0  0  0  0  0
  -18.6630    4.5380  -15.1557 H   0  0  0  0  0  0  0  0  0  0  0  0
 24 25  1  0  0  0
 25 26  1  0  0  0
 25 28  1  0  0  0
 26 27  2  0  0  0
 26 18  1  0  0  0
 18 19  1  0  0  0
 18 23  2  0  0  0
 19 20  2  0  0  0
 20 17  1  0  0  0
 20 21  1  0  0  0
 17  1  1  0  0  0
  1  2  1  0  0  0
  1  6  2  0  0  0
  2  3  2  0  0  0
  3  4  1  0  0  0
  4  7  1  0  0  0
  4  5  2  0  0  0
  7  8  2  0  0  0
  7  9  1  0  0  0
  9 10  2  0  0  0
 10 11  1  0  0  0
 11 12  1  0  0  0
 11 16  2  0  0  0
 12 13  2  0  0  0
 13 14  1  0  0  0
 14 15  2  0  0  0
 15 16  1  0  0  0
  5  6  1  0  0  0
 21 22  2  0  0  0
 22 23  1  0  0  0
M  END
> <minimizedAffinity>
-10.50557

$$$$
