CHEMBL1725279


 18 21  0  0  0  0  0  0  0  0999 V2000
  -27.3663   -3.2147   -8.8256 O   0  0  0  0  0  0  0  0  0  0  0  0
  -28.2105   -3.2364   -7.7424 C   0  0  0  0  0  0  0  0  0  0  0  0
  -28.4209   -2.0650   -6.9502 C   0  0  0  0  0  0  0  0  0  0  0  0
  -27.9814   -0.7716   -7.2970 C   0  0  0  0  0  0  0  0  0  0  0  0
  -27.9597    0.2527   -6.3465 C   0  0  0  0  0  0  0  0  0  0  0  0
  -28.3584   -0.0039   -5.0364 C   0  0  0  0  0  0  0  0  0  0  0  0
  -29.0243   -1.1847   -4.7337 C   0  0  0  0  0  0  0  0  0  0  0  0
  -29.0866   -2.1876   -5.6982 C   0  0  0  0  0  0  0  0  0  0  0  0
  -29.7471   -3.3819   -5.4305 C   0  0  0  0  0  0  0  0  0  0  0  0
  -29.5595   -4.4422   -6.2767 C   0  0  0  0  0  0  0  0  0  0  0  0
  -30.2474   -5.4802   -5.7036 C   0  0  0  0  0  0  0  0  0  0  0  0
  -30.1569   -6.7496   -6.2576 C   0  0  0  0  0  0  0  0  0  0  0  0
  -29.3039   -6.8817   -7.3774 C   0  0  0  0  0  0  0  0  0  0  0  0
  -28.6172   -5.7741   -7.9328 C   0  0  0  0  0  0  0  0  0  0  0  0
  -28.7693   -4.4850   -7.3739 C   0  0  0  0  0  0  0  0  0  0  0  0
  -30.8898   -5.0202   -4.5714 N   0  0  0  0  0  0  0  0  0  0  0  0
  -30.5798   -3.7800   -4.3998 N   0  0  0  0  0  0  0  0  0  0  0  0
  -26.7475   -2.4678   -8.7169 H   0  0  0  0  0  0  0  0  0  0  0  0
  1  2  1  0  0  0
  1 18  1  0  0  0
  2  3  1  0  0  0
  2 15  2  0  0  0
  3  4  1  0  0  0
  3  8  2  0  0  0
  4  5  2  0  0  0
  5  6  1  0  0  0
  6  7  2  0  0  0
  7  8  1  0  0  0
  8  9  1  0  0  0
  9 10  2  0  0  0
  9 17  1  0  0  0
 10 11  1  0  0  0
 10 15  1  0  0  0
 11 12  2  0  0  0
 11 16  1  0  0  0
 12 13  1  0  0  0
 13 14  2  0  0  0
 14 15  1  0  0  0
 16 17  2  0  0  0
M  END
> <minimizedAffinity>
-8.37440

$$$$
