CHEMBL3908149


 34 37  0  0  0  0  0  0  0  0999 V2000
  -28.5346   -9.4628   -5.7653 N   0  0  0  0  0  0  0  0  0  0  0  0
  -28.6017   -8.1360   -5.2173 C   0  0  0  0  0  0  0  0  0  0  0  0
  -29.1293   -8.0446   -3.9357 C   0  0  0  0  0  0  0  0  0  0  0  0
  -29.7279   -6.8843   -3.5016 C   0  0  0  0  0  0  0  0  0  0  0  0
  -29.6588   -5.7297   -4.2392 C   0  0  0  0  0  0  0  0  0  0  0  0
  -30.4351   -4.7441   -3.7919 N   0  0  0  0  0  0  0  0  0  0  0  0
  -30.2472   -3.5369   -4.3406 C   0  0  0  0  0  0  0  0  0  0  0  0
  -29.2449   -3.3088   -5.2610 C   0  0  0  0  0  0  0  0  0  0  0  0
  -28.5493   -4.3449   -5.8384 N   0  0  0  0  0  0  0  0  0  0  0  0
  -28.8028   -5.6331   -5.3692 C   0  0  0  0  0  0  0  0  0  0  0  0
  -28.3412   -6.8980   -5.8797 C   0  0  0  0  0  0  0  0  0  0  0  0
  -28.8465   -1.9078   -5.4170 C   0  0  0  0  0  0  0  0  0  0  0  0
  -27.7902   -1.2086   -4.7839 C   0  0  0  0  0  0  0  0  0  0  0  0
  -27.8815    0.1197   -4.9409 N   0  0  0  0  0  0  0  0  0  0  0  0
  -28.9957    0.2696   -5.6753 N   0  0  0  0  0  0  0  0  0  0  0  0
  -29.2969    1.5362   -6.2987 C   0  0  0  0  0  0  0  0  0  0  0  0
  -29.6891   -0.8977   -5.8394 C   0  0  0  0  0  0  0  0  0  0  0  0
  -29.0558  -11.1140   -9.1312 C   0  0  0  0  0  0  0  0  0  0  0  0
  -30.4002  -11.4512   -9.0485 C   0  0  0  0  0  0  0  0  0  0  0  0
  -31.1474  -11.0428   -7.9409 C   0  0  0  0  0  0  0  0  0  0  0  0
  -30.5426  -10.3330   -6.8925 C   0  0  0  0  0  0  0  0  0  0  0  0
  -29.1704  -10.0612   -6.8892 C   0  0  0  0  0  0  0  0  0  0  0  0
  -28.4779  -10.3939   -8.0804 C   0  0  0  0  0  0  0  0  0  0  0  0
  -27.1430  -10.5321  -10.4212 C   0  0  0  0  0  0  0  0  0  0  0  0
  -28.2192  -11.4354  -10.1605 O   0  0  0  0  0  0  0  0  0  0  0  0
  -32.4839  -11.2912   -7.7621 O   0  0  0  0  0  0  0  0  0  0  0  0
  -33.0121  -11.0137   -6.4721 C   0  0  0  0  0  0  0  0  0  0  0  0
  -27.9923  -10.4269   -4.7279 C   0  0  0  0  0  0  0  0  0  0  0  0
  -26.4549  -10.4902   -4.7613 C   0  0  0  0  0  0  0  0  0  0  0  0
  -25.9803   -9.9502   -5.9232 F   0  0  0  0  0  0  0  0  0  0  0  0
  -25.7669   -9.7408   -3.6127 C   0  0  0  0  0  0  0  0  0  0  0  0
  -25.3830   -8.3631   -3.9396 N   0  0  0  0  0  0  0  0  0  0  0  0
  -24.8303   -8.3796   -4.8019 H   0  0  0  0  0  0  0  0  0  0  0  0
  -24.7454   -8.0186   -3.2201 H   0  0  0  0  0  0  0  0  0  0  0  0
 24 25  1  0  0  0
 25 18  1  0  0  0
 18 19  1  0  0  0
 18 23  2  0  0  0
 19 20  2  0  0  0
 20 26  1  0  0  0
 20 21  1  0  0  0
 26 27  1  0  0  0
 21 22  2  0  0  0
 22  1  1  0  0  0
 22 23  1  0  0  0
  1 28  1  0  0  0
  1  2  1  0  0  0
 28 29  1  0  0  0
 29 30  1  0  0  0
 29 31  1  0  0  0
 31 32  1  0  0  0
 32 33  1  0  0  0
 32 34  1  0  0  0
  2  3  1  0  0  0
  2 11  2  0  0  0
  3  4  2  0  0  0
  4  5  1  0  0  0
  5  6  1  0  0  0
  5 10  2  0  0  0
  6  7  2  0  0  0
  7  8  1  0  0  0
  8 12  1  0  0  0
  8  9  2  0  0  0
 12 13  1  0  0  0
 12 17  2  0  0  0
 13 14  2  0  0  0
 14 15  1  0  0  0
 15 16  1  0  0  0
 15 17  1  0  0  0
  9 10  1  0  0  0
 10 11  1  0  0  0
M  END
> <minimizedAffinity>
-7.40587

$$$$
