CHEMBL24828


 31 34  0  0  0  0  0  0  0  0999 V2000
  -17.9411    1.0240  -14.9462 C   0  0  0  0  0  0  0  0  0  0  0  0
  -19.2344    0.5794  -14.6591 C   0  0  0  0  0  0  0  0  0  0  0  0
  -20.3118    1.4790  -14.4899 C   0  0  0  0  0  0  0  0  0  0  0  0
  -21.6361    1.0965  -14.2514 C   0  0  0  0  0  0  0  0  0  0  0  0
  -22.6298    1.9985  -14.1363 N   0  0  0  0  0  0  0  0  0  0  0  0
  -22.2921    3.2850  -14.2239 C   0  0  0  0  0  0  0  0  0  0  0  0
  -21.0556    3.7586  -14.3853 N   0  0  0  0  0  0  0  0  0  0  0  0
  -20.0849    2.8486  -14.5171 C   0  0  0  0  0  0  0  0  0  0  0  0
  -18.7880    3.2860  -14.6998 C   0  0  0  0  0  0  0  0  0  0  0  0
  -17.7136    2.4132  -14.9734 C   0  0  0  0  0  0  0  0  0  0  0  0
  -16.0797   -0.3150  -14.1664 C   0  0  0  0  0  0  0  0  0  0  0  0
  -16.8965    0.1856  -15.2243 O   0  0  0  0  0  0  0  0  0  0  0  0
  -21.9401   -0.2805  -14.1064 N   0  0  0  0  0  0  0  0  0  0  0  0
  -21.8076   -0.7750  -14.9855 H   0  0  0  0  0  0  0  0  0  0  0  0
  -23.0474   -0.7679  -13.3779 C   0  0  0  0  0  0  0  0  0  0  0  0
  -22.9336   -1.1052  -12.0275 C   0  0  0  0  0  0  0  0  0  0  0  0
  -24.0490   -1.5060  -11.2957 C   0  0  0  0  0  0  0  0  0  0  0  0
  -25.2850   -1.5901  -11.9205 C   0  0  0  0  0  0  0  0  0  0  0  0
  -26.8126   -2.0394  -10.9069 Br  0  0  0  0  0  0  0  0  0  0  0  0
  -25.4143   -1.3271  -13.2856 C   0  0  0  0  0  0  0  0  0  0  0  0
  -24.2911   -0.9292  -14.0038 C   0  0  0  0  0  0  0  0  0  0  0  0
  -24.4114   -0.6579  -15.3135 F   0  0  0  0  0  0  0  0  0  0  0  0
  -16.4454    2.8917  -15.2985 O   0  0  0  0  0  0  0  0  0  0  0  0
  -16.3630    3.3768  -16.6511 C   0  0  0  0  0  0  0  0  0  0  0  0
  -15.4717    4.6106  -16.8706 C   0  0  0  0  0  0  0  0  0  0  0  0
  -15.0784    4.8547  -18.3294 C   0  0  0  0  0  0  0  0  0  0  0  0
  -14.1774    3.7473  -18.8886 C   0  0  0  0  0  0  0  0  0  0  0  0
  -12.9903    3.4852  -18.0593 N   0  0  0  0  0  0  0  0  0  0  0  0
  -12.2788    2.3088  -18.5730 C   0  0  0  0  0  0  0  0  0  0  0  0
  -13.2863    3.3114  -16.6335 C   0  0  0  0  0  0  0  0  0  0  0  0
  -14.1673    4.4324  -16.0670 C   0  0  0  0  0  0  0  0  0  0  0  0
 11 12  1  0  0  0
 12  1  1  0  0  0
  1  2  1  0  0  0
  1 10  2  0  0  0
  2  3  2  0  0  0
  3  4  1  0  0  0
  3  8  1  0  0  0
  4 13  1  0  0  0
  4  5  2  0  0  0
 13 15  1  0  0  0
 13 14  1  0  0  0
 15 16  1  0  0  0
 15 21  2  0  0  0
 16 17  2  0  0  0
 17 18  1  0  0  0
 18 19  1  0  0  0
 18 20  2  0  0  0
 20 21  1  0  0  0
 21 22  1  0  0  0
  5  6  1  0  0  0
  6  7  2  0  0  0
  7  8  1  0  0  0
  8  9  2  0  0  0
  9 10  1  0  0  0
 10 23  1  0  0  0
 23 24  1  0  0  0
 24 25  1  0  0  0
 25 26  1  0  0  0
 25 31  1  0  0  0
 26 27  1  0  0  0
 27 28  1  0  0  0
 28 29  1  0  0  0
 28 30  1  0  0  0
 30 31  1  0  0  0
M  END
> <minimizedAffinity>
-8.81332

$$$$
