CHEMBL3964320


 32 35  0  0  0  0  0  0  0  0999 V2000
  -13.8427   -0.0648  -15.6649 C   0  0  0  0  0  0  0  0  0  0  0  0
  -15.0272    0.2241  -14.9355 C   0  0  0  0  0  0  0  0  0  0  0  0
  -15.9586    1.1728  -15.3731 C   0  0  0  0  0  0  0  0  0  0  0  0
  -15.7247    1.8695  -16.5571 C   0  0  0  0  0  0  0  0  0  0  0  0
  -14.5852    1.6097  -17.3020 C   0  0  0  0  0  0  0  0  0  0  0  0
  -13.6408    0.6512  -16.8807 C   0  0  0  0  0  0  0  0  0  0  0  0
  -12.4379    0.4974  -17.7803 C   0  0  0  0  0  0  0  0  0  0  0  0
  -12.2529   -3.4796  -10.9131 C   0  0  0  0  0  0  0  0  0  0  0  0
  -13.0958   -4.2805  -11.5852 N   0  0  0  0  0  0  0  0  0  0  0  0
  -13.4198   -3.8935  -12.8296 C   0  0  0  0  0  0  0  0  0  0  0  0
  -12.9437   -2.7449  -13.4261 C   0  0  0  0  0  0  0  0  0  0  0  0
  -12.0612   -2.0008  -12.6662 C   0  0  0  0  0  0  0  0  0  0  0  0
  -11.7089   -2.3541  -11.4106 N   0  0  0  0  0  0  0  0  0  0  0  0
  -11.5088   -0.7049  -13.1958 C   0  0  0  0  0  0  0  0  0  0  0  0
  -11.5949   -0.6445  -14.7216 C   0  0  0  0  0  0  0  0  0  0  0  0
  -12.9436   -1.0093  -15.1768 N   0  0  0  0  0  0  0  0  0  0  0  0
  -13.3751   -2.3605  -14.8084 C   0  0  0  0  0  0  0  0  0  0  0  0
  -13.2277   -4.9612   -8.8130 C   0  0  0  0  0  0  0  0  0  0  0  0
  -11.8220   -3.9045   -9.2429 S   0  0  0  0  0  0  0  0  0  0  0  0
  -17.2675    1.4166  -14.7069 C   0  0  0  0  0  0  0  0  0  0  0  0
  -17.2914    1.2738  -13.4900 O   0  0  0  0  0  0  0  0  0  0  0  0
  -18.3597    1.7139  -15.5144 N   0  0  0  0  0  0  0  0  0  0  0  0
  -18.2428    1.6396  -16.5159 H   0  0  0  0  0  0  0  0  0  0  0  0
  -19.6917    1.8865  -15.0400 C   0  0  0  0  0  0  0  0  0  0  0  0
  -20.2638    3.1443  -14.8242 C   0  0  0  0  0  0  0  0  0  0  0  0
  -21.5417    3.2687  -14.2794 C   0  0  0  0  0  0  0  0  0  0  0  0
  -22.2739    2.1367  -13.9451 C   0  0  0  0  0  0  0  0  0  0  0  0
  -21.7431    0.8576  -14.1685 C   0  0  0  0  0  0  0  0  0  0  0  0
  -20.4564    0.7470  -14.7417 C   0  0  0  0  0  0  0  0  0  0  0  0
  -22.5164   -0.3831  -13.7497 C   0  0  0  0  0  0  0  0  0  0  0  0
  -22.6672   -0.4482  -12.2244 C   0  0  0  0  0  0  0  0  0  0  0  0
  -23.8917   -0.4657  -14.4195 C   0  0  0  0  0  0  0  0  0  0  0  0
 18 19  1  0  0  0
 19  8  1  0  0  0
  8  9  1  0  0  0
  8 13  2  0  0  0
  9 10  2  0  0  0
 10 11  1  0  0  0
 11 12  2  0  0  0
 11 17  1  0  0  0
 12 13  1  0  0  0
 12 14  1  0  0  0
 14 15  1  0  0  0
 15 16  1  0  0  0
 16  1  1  0  0  0
 16 17  1  0  0  0
  1  2  1  0  0  0
  1  6  2  0  0  0
  2  3  2  0  0  0
  3 20  1  0  0  0
  3  4  1  0  0  0
 20 21  2  0  0  0
 20 22  1  0  0  0
 22 24  1  0  0  0
 22 23  1  0  0  0
 24 25  1  0  0  0
 24 29  2  0  0  0
 25 26  2  0  0  0
 26 27  1  0  0  0
 27 28  2  0  0  0
 28 30  1  0  0  0
 28 29  1  0  0  0
 30 31  1  0  0  0
 30 32  1  0  0  0
  4  5  2  0  0  0
  5  6  1  0  0  0
  6  7  1  0  0  0
M  END
> <minimizedAffinity>
-9.32941

$$$$
