CHEMBL248980


 27 29  0  0  0  0  0  0  0  0999 V2000
  -30.4974   -5.8168   -4.6298 C   0  0  0  0  0  0  0  0  0  0  0  0
  -31.7425   -5.9003   -3.9876 C   0  0  0  0  0  0  0  0  0  0  0  0
  -32.1937   -4.8444   -3.2138 C   0  0  0  0  0  0  0  0  0  0  0  0
  -31.3795   -3.7365   -3.1161 C   0  0  0  0  0  0  0  0  0  0  0  0
  -30.1941   -3.6111   -3.7591 N   0  0  0  0  0  0  0  0  0  0  0  0
  -29.7597   -4.6280   -4.5432 C   0  0  0  0  0  0  0  0  0  0  0  0
  -30.6967   -7.2002   -6.6314 N   0  0  0  0  0  0  0  0  0  0  0  0
  -30.0766   -7.0062   -5.4089 C   0  0  0  0  0  0  0  0  0  0  0  0
  -29.2044   -7.7087   -4.9158 O   0  0  0  0  0  0  0  0  0  0  0  0
  -31.4079   -6.5212   -6.8942 H   0  0  0  0  0  0  0  0  0  0  0  0
  -28.7486   -9.1506   -9.1262 C   0  0  0  0  0  0  0  0  0  0  0  0
  -29.6403  -10.1861   -9.4276 C   0  0  0  0  0  0  0  0  0  0  0  0
  -30.8900  -10.2339   -8.8191 C   0  0  0  0  0  0  0  0  0  0  0  0
  -31.2620   -9.2486   -7.9029 C   0  0  0  0  0  0  0  0  0  0  0  0
  -30.3935   -8.2020   -7.5818 C   0  0  0  0  0  0  0  0  0  0  0  0
  -29.1385   -8.1562   -8.2098 C   0  0  0  0  0  0  0  0  0  0  0  0
  -26.9413  -10.4955  -10.2536 C   0  0  0  0  0  0  0  0  0  0  0  0
  -27.3903   -9.1214   -9.7804 C   0  0  0  0  0  0  0  0  0  0  0  0
  -28.5171   -4.4942   -5.1984 N   0  0  0  0  0  0  0  0  0  0  0  0
  -28.6792   -4.2640   -6.1792 H   0  0  0  0  0  0  0  0  0  0  0  0
  -27.6019   -3.5104   -4.6139 C   0  0  0  0  0  0  0  0  0  0  0  0
  -27.7504   -2.1708   -5.3008 C   0  0  0  0  0  0  0  0  0  0  0  0
  -27.7960   -0.9843   -4.5623 C   0  0  0  0  0  0  0  0  0  0  0  0
  -27.8994    0.2200   -5.2425 C   0  0  0  0  0  0  0  0  0  0  0  0
  -27.9730    0.3200   -6.5870 N   0  0  0  0  0  0  0  0  0  0  0  0
  -27.9560   -0.8362   -7.2819 C   0  0  0  0  0  0  0  0  0  0  0  0
  -27.8562   -2.0880   -6.6936 C   0  0  0  0  0  0  0  0  0  0  0  0
 17 18  1  0  0  0
 18 11  1  0  0  0
 11 12  1  0  0  0
 11 16  2  0  0  0
 12 13  2  0  0  0
 13 14  1  0  0  0
 14 15  2  0  0  0
 15  7  1  0  0  0
 15 16  1  0  0  0
  7  8  1  0  0  0
  7 10  1  0  0  0
  8  9  2  0  0  0
  8  1  1  0  0  0
  1  2  1  0  0  0
  1  6  2  0  0  0
  2  3  2  0  0  0
  3  4  1  0  0  0
  4  5  2  0  0  0
  5  6  1  0  0  0
  6 19  1  0  0  0
 19 21  1  0  0  0
 19 20  1  0  0  0
 21 22  1  0  0  0
 22 23  1  0  0  0
 22 27  2  0  0  0
 23 24  2  0  0  0
 24 25  1  0  0  0
 25 26  2  0  0  0
 26 27  1  0  0  0
M  END
> <minimizedAffinity>
-7.89415

$$$$
