CHEMBL3690455


 35 38  0  0  0  0  0  0  0  0999 V2000
  -19.5450    2.5966  -14.7604 C   0  0  0  0  0  0  0  0  0  0  0  0
  -20.1646    3.8350  -14.6575 C   0  0  0  0  0  0  0  0  0  0  0  0
  -21.4910    3.7282  -14.3453 N   0  0  0  0  0  0  0  0  0  0  0  0
  -21.7133    2.4375  -14.2574 C   0  0  0  0  0  0  0  0  0  0  0  0
  -22.9074    1.7341  -13.9452 C   0  0  0  0  0  0  0  0  0  0  0  0
  -22.9380    0.3798  -13.9006 C   0  0  0  0  0  0  0  0  0  0  0  0
  -21.7105   -0.3656  -14.1911 C   0  0  0  0  0  0  0  0  0  0  0  0
  -20.5866    0.2925  -14.5104 C   0  0  0  0  0  0  0  0  0  0  0  0
  -20.5712    1.6888  -14.5184 N   0  0  0  0  0  0  0  0  0  0  0  0
  -16.2511    0.7254  -15.1131 C   0  0  0  0  0  0  0  0  0  0  0  0
  -15.5717    1.5987  -15.9532 C   0  0  0  0  0  0  0  0  0  0  0  0
  -16.1359    2.8181  -16.3222 C   0  0  0  0  0  0  0  0  0  0  0  0
  -17.4196    3.1547  -15.9019 C   0  0  0  0  0  0  0  0  0  0  0  0
  -18.1583    2.2705  -15.1078 C   0  0  0  0  0  0  0  0  0  0  0  0
  -17.5365    1.0858  -14.6747 C   0  0  0  0  0  0  0  0  0  0  0  0
  -15.6146   -0.1514  -12.3519 O   0  0  0  0  0  0  0  0  0  0  0  0
  -15.4561   -0.8486  -13.3484 C   0  0  0  0  0  0  0  0  0  0  0  0
  -14.9737   -2.1357  -13.2474 N   0  0  0  0  0  0  0  0  0  0  0  0
  -15.7342   -0.5087  -14.6642 N   0  0  0  0  0  0  0  0  0  0  0  0
  -14.4467   -2.4669  -14.0431 H   0  0  0  0  0  0  0  0  0  0  0  0
  -15.6280   -1.2391  -15.3483 H   0  0  0  0  0  0  0  0  0  0  0  0
  -14.5154   -2.6164  -11.9360 C   0  0  0  0  0  0  0  0  0  0  0  0
  -15.6055   -3.2687  -11.0718 C   0  0  0  0  0  0  0  0  0  0  0  0
  -16.1192   -2.3975  -10.1717 F   0  0  0  0  0  0  0  0  0  0  0  0
  -16.6214   -3.7606  -11.8087 F   0  0  0  0  0  0  0  0  0  0  0  0
  -15.0826   -4.2985  -10.3602 F   0  0  0  0  0  0  0  0  0  0  0  0
  -24.2003   -0.3055  -13.5312 C   0  0  0  0  0  0  0  0  0  0  0  0
  -24.8728   -1.1310  -14.4278 C   0  0  0  0  0  0  0  0  0  0  0  0
  -26.0729   -1.7187  -14.0447 C   0  0  0  0  0  0  0  0  0  0  0  0
  -26.5870   -1.4738  -12.7724 C   0  0  0  0  0  0  0  0  0  0  0  0
  -25.8247   -0.6763  -11.9256 C   0  0  0  0  0  0  0  0  0  0  0  0
  -24.6546   -0.0912  -12.2724 N   0  0  0  0  0  0  0  0  0  0  0  0
  -27.8608   -2.0962  -12.2875 C   0  0  0  0  0  0  0  0  0  0  0  0
  -28.5733   -2.7269  -13.3444 O   0  0  0  0  0  0  0  0  0  0  0  0
  -28.7666   -2.0402  -14.0058 H   0  0  0  0  0  0  0  0  0  0  0  0
 16 17  2  0  0  0
 17 18  1  0  0  0
 17 19  1  0  0  0
 18 22  1  0  0  0
 18 20  1  0  0  0
 22 23  1  0  0  0
 23 24  1  0  0  0
 23 25  1  0  0  0
 23 26  1  0  0  0
 19 10  1  0  0  0
 19 21  1  0  0  0
 10 11  1  0  0  0
 10 15  2  0  0  0
 11 12  2  0  0  0
 12 13  1  0  0  0
 13 14  2  0  0  0
 14  1  1  0  0  0
 14 15  1  0  0  0
  1  2  2  0  0  0
  1  9  1  0  0  0
  2  3  1  0  0  0
  3  4  2  0  0  0
  4  5  1  0  0  0
  4  9  1  0  0  0
  5  6  2  0  0  0
  6 27  1  0  0  0
  6  7  1  0  0  0
 27 28  1  0  0  0
 27 32  2  0  0  0
 28 29  2  0  0  0
 29 30  1  0  0  0
 30 33  1  0  0  0
 30 31  2  0  0  0
 33 34  1  0  0  0
 34 35  1  0  0  0
 31 32  1  0  0  0
  7  8  2  0  0  0
  8  9  1  0  0  0
M  END
> <minimizedAffinity>
-10.67241

$$$$
