CHEMBL190984


 28 30  0  0  0  0  0  0  0  0999 V2000
  -30.0243   -3.9982   -5.4233 C   0  0  0  0  0  0  0  0  0  0  0  0
  -30.6500   -3.6860   -4.2166 C   0  0  0  0  0  0  0  0  0  0  0  0
  -31.3093   -4.5932   -3.4600 N   0  0  0  0  0  0  0  0  0  0  0  0
  -31.3312   -5.8457   -3.9714 C   0  0  0  0  0  0  0  0  0  0  0  0
  -30.7710   -6.1911   -5.2028 C   0  0  0  0  0  0  0  0  0  0  0  0
  -30.0998   -5.2586   -5.9219 N   0  0  0  0  0  0  0  0  0  0  0  0
  -27.9468   -2.4318   -8.2038 C   0  0  0  0  0  0  0  0  0  0  0  0
  -27.7444   -1.1894   -7.6063 C   0  0  0  0  0  0  0  0  0  0  0  0
  -28.2864   -0.8012   -6.4271 N   0  0  0  0  0  0  0  0  0  0  0  0
  -29.0391   -1.7207   -5.7734 C   0  0  0  0  0  0  0  0  0  0  0  0
  -29.2534   -3.0260   -6.2107 C   0  0  0  0  0  0  0  0  0  0  0  0
  -28.6879   -3.3517   -7.4552 C   0  0  0  0  0  0  0  0  0  0  0  0
  -27.3580   -2.7684   -9.4248 N   0  0  0  0  0  0  0  0  0  0  0  0
  -26.4820   -3.2824   -9.3483 H   0  0  0  0  0  0  0  0  0  0  0  0
  -27.3276   -1.7449  -10.4759 C   0  0  0  0  0  0  0  0  0  0  0  0
  -25.9179   -1.5870  -11.0874 C   0  0  0  0  0  0  0  0  0  0  0  0
  -24.6198   -1.6688  -13.1442 C   0  0  0  0  0  0  0  0  0  0  0  0
  -25.8739   -1.2379  -12.5219 N   0  0  0  0  0  0  0  0  0  0  0  0
  -27.0080   -1.8549  -13.2152 C   0  0  0  0  0  0  0  0  0  0  0  0
  -30.8264   -7.5328   -5.6525 N   0  0  0  0  0  0  0  0  0  0  0  0
  -31.7548   -7.7465   -6.0073 H   0  0  0  0  0  0  0  0  0  0  0  0
  -29.8791   -8.1279   -6.5253 C   0  0  0  0  0  0  0  0  0  0  0  0
  -30.1064   -8.2514   -7.9045 C   0  0  0  0  0  0  0  0  0  0  0  0
  -29.2011   -8.9264   -8.7251 C   0  0  0  0  0  0  0  0  0  0  0  0
  -28.0633   -9.5059   -8.1705 C   0  0  0  0  0  0  0  0  0  0  0  0
  -27.8415   -9.4110   -6.7983 C   0  0  0  0  0  0  0  0  0  0  0  0
  -26.4425  -10.1407   -6.1106 Cl  0  0  0  0  0  0  0  0  0  0  0  0
  -28.7477   -8.7410   -5.9753 C   0  0  0  0  0  0  0  0  0  0  0  0
 17 18  1  0  0  0
 18 19  1  0  0  0
 18 16  1  0  0  0
 16 15  1  0  0  0
 15 13  1  0  0  0
 13  7  1  0  0  0
 13 14  1  0  0  0
  7  8  1  0  0  0
  7 12  2  0  0  0
  8  9  2  0  0  0
  9 10  1  0  0  0
 10 11  2  0  0  0
 11  1  1  0  0  0
 11 12  1  0  0  0
  1  2  1  0  0  0
  1  6  2  0  0  0
  2  3  2  0  0  0
  3  4  1  0  0  0
  4  5  2  0  0  0
  5 20  1  0  0  0
  5  6  1  0  0  0
 20 22  1  0  0  0
 20 21  1  0  0  0
 22 23  1  0  0  0
 22 28  2  0  0  0
 23 24  2  0  0  0
 24 25  1  0  0  0
 25 26  2  0  0  0
 26 27  1  0  0  0
 26 28  1  0  0  0
M  END
> <minimizedAffinity>
-7.79029

$$$$
