CHEMBL238735


 30 32  0  0  0  0  0  0  0  0999 V2000
  -13.4316    1.9668  -15.5313 C   0  0  0  0  0  0  0  0  0  0  0  0
  -14.8675    2.0863  -15.4363 N   0  0  0  0  0  0  0  0  0  0  0  0
  -15.6413    2.8972  -16.2169 C   0  0  0  0  0  0  0  0  0  0  0  0
  -16.9188    2.7361  -15.9577 N   0  0  0  0  0  0  0  0  0  0  0  0
  -16.9617    1.8203  -14.9511 C   0  0  0  0  0  0  0  0  0  0  0  0
  -15.7065    1.3551  -14.6186 C   0  0  0  0  0  0  0  0  0  0  0  0
  -15.2899    0.3418  -13.6802 C   0  0  0  0  0  0  0  0  0  0  0  0
  -14.9254    0.6307  -12.5474 O   0  0  0  0  0  0  0  0  0  0  0  0
  -15.2587   -0.9420  -14.2148 N   0  0  0  0  0  0  0  0  0  0  0  0
  -15.3575   -0.9918  -15.2237 H   0  0  0  0  0  0  0  0  0  0  0  0
  -14.9149   -2.1222  -13.5268 C   0  0  0  0  0  0  0  0  0  0  0  0
  -13.6611   -2.3254  -12.9623 C   0  0  0  0  0  0  0  0  0  0  0  0
  -13.3507   -3.5321  -12.3350 C   0  0  0  0  0  0  0  0  0  0  0  0
  -14.2918   -4.5618  -12.2603 C   0  0  0  0  0  0  0  0  0  0  0  0
  -13.7687   -6.0208  -11.5047 Cl  0  0  0  0  0  0  0  0  0  0  0  0
  -15.5743   -4.3774  -12.7871 C   0  0  0  0  0  0  0  0  0  0  0  0
  -15.8789   -3.1339  -13.3999 C   0  0  0  0  0  0  0  0  0  0  0  0
  -16.6593   -5.4241  -12.7567 C   0  0  0  0  0  0  0  0  0  0  0  0
  -16.2910   -6.6969  -13.0517 F   0  0  0  0  0  0  0  0  0  0  0  0
  -17.2602   -5.4908  -11.5335 F   0  0  0  0  0  0  0  0  0  0  0  0
  -17.6642   -5.1294  -13.6335 F   0  0  0  0  0  0  0  0  0  0  0  0
  -18.1161    1.4442  -14.3788 N   0  0  0  0  0  0  0  0  0  0  0  0
  -18.3211    1.6384  -13.4043 H   0  0  0  0  0  0  0  0  0  0  0  0
  -19.1755    0.8090  -15.1323 C   0  0  0  0  0  0  0  0  0  0  0  0
  -20.5365    1.3077  -14.7249 C   0  0  0  0  0  0  0  0  0  0  0  0
  -21.5364    0.4110  -14.3376 C   0  0  0  0  0  0  0  0  0  0  0  0
  -22.7459    0.9160  -13.8865 C   0  0  0  0  0  0  0  0  0  0  0  0
  -23.0251    2.2347  -13.7991 N   0  0  0  0  0  0  0  0  0  0  0  0
  -22.0506    3.0850  -14.1829 C   0  0  0  0  0  0  0  0  0  0  0  0
  -20.8092    2.6776  -14.6482 C   0  0  0  0  0  0  0  0  0  0  0  0
  1  2  1  0  0  0
  2  3  1  0  0  0
  2  6  1  0  0  0
  3  4  2  0  0  0
  4  5  1  0  0  0
  5 22  1  0  0  0
  5  6  2  0  0  0
 22 24  1  0  0  0
 22 23  1  0  0  0
 24 25  1  0  0  0
 25 26  1  0  0  0
 25 30  2  0  0  0
 26 27  2  0  0  0
 27 28  1  0  0  0
 28 29  2  0  0  0
 29 30  1  0  0  0
  6  7  1  0  0  0
  7  8  2  0  0  0
  7  9  1  0  0  0
  9 11  1  0  0  0
  9 10  1  0  0  0
 11 12  1  0  0  0
 11 17  2  0  0  0
 12 13  2  0  0  0
 13 14  1  0  0  0
 14 15  1  0  0  0
 14 16  2  0  0  0
 16 18  1  0  0  0
 16 17  1  0  0  0
 18 19  1  0  0  0
 18 20  1  0  0  0
 18 21  1  0  0  0
M  END
> <minimizedAffinity>
-8.80715

$$$$
