CHEMBL1095361


 45 50  0  0  0  0  0  0  0  0999 V2000
  -23.5449   -0.6566  -13.4227 C   0  0  0  0  0  0  0  0  0  0  0  0
  -24.8137   -1.0843  -13.8054 C   0  0  0  0  0  0  0  0  0  0  0  0
  -25.6659   -1.6571  -12.8709 C   0  0  0  0  0  0  0  0  0  0  0  0
  -25.2963   -1.7398  -11.5260 C   0  0  0  0  0  0  0  0  0  0  0  0
  -24.1009   -1.1483  -11.1094 C   0  0  0  0  0  0  0  0  0  0  0  0
  -23.2252   -0.6294  -12.0644 C   0  0  0  0  0  0  0  0  0  0  0  0
  -22.0494   -0.1283  -11.6556 F   0  0  0  0  0  0  0  0  0  0  0  0
  -26.1039   -2.3849  -10.5734 N   0  0  0  0  0  0  0  0  0  0  0  0
  -27.2880   -1.8654  -10.0660 C   0  0  0  0  0  0  0  0  0  0  0  0
  -27.8837   -0.8857  -10.4942 O   0  0  0  0  0  0  0  0  0  0  0  0
  -25.8187   -3.3072  -10.2801 H   0  0  0  0  0  0  0  0  0  0  0  0
  -27.7999   -2.5952   -8.9275 C   0  0  0  0  0  0  0  0  0  0  0  0
  -28.1284   -3.9501   -8.8069 C   0  0  0  0  0  0  0  0  0  0  0  0
  -28.4616   -4.2798   -7.5643 N   0  0  0  0  0  0  0  0  0  0  0  0
  -28.4916   -3.0997   -6.8806 N   0  0  0  0  0  0  0  0  0  0  0  0
  -28.0290   -2.0625   -7.6632 C   0  0  0  0  0  0  0  0  0  0  0  0
  -28.9348   -3.1166   -5.5289 C   0  0  0  0  0  0  0  0  0  0  0  0
  -28.0519   -3.5943   -4.5467 C   0  0  0  0  0  0  0  0  0  0  0  0
  -28.4345   -3.6037   -3.2059 C   0  0  0  0  0  0  0  0  0  0  0  0
  -29.7048   -3.1657   -2.8390 C   0  0  0  0  0  0  0  0  0  0  0  0
  -30.5980   -2.7263   -3.8165 C   0  0  0  0  0  0  0  0  0  0  0  0
  -30.2166   -2.7031   -5.1597 C   0  0  0  0  0  0  0  0  0  0  0  0
  -27.7081   -0.7242   -7.1320 C   0  0  0  0  0  0  0  0  0  0  0  0
  -27.2042   -0.7620   -5.8731 F   0  0  0  0  0  0  0  0  0  0  0  0
  -26.8002   -0.0660   -7.8917 F   0  0  0  0  0  0  0  0  0  0  0  0
  -28.8121    0.0610   -7.0499 F   0  0  0  0  0  0  0  0  0  0  0  0
  -22.5798   -0.2520  -14.3136 O   0  0  0  0  0  0  0  0  0  0  0  0
  -18.3571    1.5727  -14.8945 C   0  0  0  0  0  0  0  0  0  0  0  0
  -18.9714    2.7887  -14.6401 C   0  0  0  0  0  0  0  0  0  0  0  0
  -20.3718    2.6814  -14.4029 C   0  0  0  0  0  0  0  0  0  0  0  0
  -21.2004    3.7259  -14.1317 N   0  0  0  0  0  0  0  0  0  0  0  0
  -22.5003    3.4144  -13.9805 C   0  0  0  0  0  0  0  0  0  0  0  0
  -23.0297    2.1417  -14.0710 C   0  0  0  0  0  0  0  0  0  0  0  0
  -22.1643    1.0646  -14.2734 C   0  0  0  0  0  0  0  0  0  0  0  0
  -20.8118    1.3644  -14.4784 C   0  0  0  0  0  0  0  0  0  0  0  0
  -19.5162    0.3012  -14.8164 S   0  0  0  0  0  0  0  0  0  0  0  0
  -12.6264    0.2000  -17.5689 C   0  0  0  0  0  0  0  0  0  0  0  0
  -13.3054   -0.3553  -16.3432 C   0  0  0  0  0  0  0  0  0  0  0  0
  -12.9254   -1.4213  -15.8573 O   0  0  0  0  0  0  0  0  0  0  0  0
  -14.3440    0.3826  -15.8009 N   0  0  0  0  0  0  0  0  0  0  0  0
  -14.9262   -0.0818  -14.5491 C   0  0  0  0  0  0  0  0  0  0  0  0
  -16.3308    0.4163  -14.3588 C   0  0  0  0  0  0  0  0  0  0  0  0
  -16.9864    1.2553  -15.1893 C   0  0  0  0  0  0  0  0  0  0  0  0
  -16.2454    1.7985  -16.4000 C   0  0  0  0  0  0  0  0  0  0  0  0
  -14.7334    1.7211  -16.2324 C   0  0  0  0  0  0  0  0  0  0  0  0
 37 38  1  0  0  0
 38 39  2  0  0  0
 38 40  1  0  0  0
 40 41  1  0  0  0
 40 45  1  0  0  0
 41 42  1  0  0  0
 42 43  2  0  0  0
 43 28  1  0  0  0
 43 44  1  0  0  0
 28 29  2  0  0  0
 28 36  1  0  0  0
 29 30  1  0  0  0
 30 31  1  0  0  0
 30 35  2  0  0  0
 31 32  2  0  0  0
 32 33  1  0  0  0
 33 34  2  0  0  0
 34 27  1  0  0  0
 34 35  1  0  0  0
 27  1  1  0  0  0
  1  2  1  0  0  0
  1  6  2  0  0  0
  2  3  2  0  0  0
  3  4  1  0  0  0
  4  8  1  0  0  0
  4  5  2  0  0  0
  8  9  1  0  0  0
  8 11  1  0  0  0
  9 10  2  0  0  0
  9 12  1  0  0  0
 12 13  1  0  0  0
 12 16  2  0  0  0
 13 14  2  0  0  0
 14 15  1  0  0  0
 15 17  1  0  0  0
 15 16  1  0  0  0
 17 18  1  0  0  0
 17 22  2  0  0  0
 18 19  2  0  0  0
 19 20  1  0  0  0
 20 21  2  0  0  0
 21 22  1  0  0  0
 16 23  1  0  0  0
 23 24  1  0  0  0
 23 25  1  0  0  0
 23 26  1  0  0  0
  5  6  1  0  0  0
  6  7  1  0  0  0
 35 36  1  0  0  0
 44 45  1  0  0  0
M  END
> <minimizedAffinity>
-10.34076

$$$$
