CHEMBL3746204


 35 38  0  0  0  0  0  0  0  0999 V2000
  -28.0283   -2.1607   -8.5407 C   0  0  0  0  0  0  0  0  0  0  0  0
  -28.0566   -3.5488   -8.6936 C   0  0  0  0  0  0  0  0  0  0  0  0
  -28.1565   -4.4053   -7.5856 C   0  0  0  0  0  0  0  0  0  0  0  0
  -28.1466   -3.8338   -6.3011 C   0  0  0  0  0  0  0  0  0  0  0  0
  -28.0332   -2.4439   -6.1322 C   0  0  0  0  0  0  0  0  0  0  0  0
  -28.0508   -2.1738   -4.7422 C   0  0  0  0  0  0  0  0  0  0  0  0
  -28.2739   -3.3639   -4.1006 C   0  0  0  0  0  0  0  0  0  0  0  0
  -28.3393   -4.3868   -5.0324 N   0  0  0  0  0  0  0  0  0  0  0  0
  -28.7176   -5.6976   -4.6807 C   0  0  0  0  0  0  0  0  0  0  0  0
  -29.6641   -5.8281   -3.9214 O   0  0  0  0  0  0  0  0  0  0  0  0
  -27.8063   -6.6510   -5.1113 N   0  0  0  0  0  0  0  0  0  0  0  0
  -27.9656   -1.6044   -7.2622 C   0  0  0  0  0  0  0  0  0  0  0  0
  -26.9225   -6.3164   -5.4799 H   0  0  0  0  0  0  0  0  0  0  0  0
  -27.8651   -8.0003   -4.6662 C   0  0  0  0  0  0  0  0  0  0  0  0
  -29.0785   -8.6830   -4.5127 C   0  0  0  0  0  0  0  0  0  0  0  0
  -29.1144   -9.9807   -3.9971 C   0  0  0  0  0  0  0  0  0  0  0  0
  -27.9337  -10.6026   -3.6167 C   0  0  0  0  0  0  0  0  0  0  0  0
  -28.0041  -11.8355   -3.0968 F   0  0  0  0  0  0  0  0  0  0  0  0
  -26.7084   -9.9616   -3.7630 C   0  0  0  0  0  0  0  0  0  0  0  0
  -26.6776   -8.6611   -4.3228 C   0  0  0  0  0  0  0  0  0  0  0  0
  -25.4425  -10.6271   -3.3025 C   0  0  0  0  0  0  0  0  0  0  0  0
  -24.9057  -11.5251   -4.1727 F   0  0  0  0  0  0  0  0  0  0  0  0
  -24.4528   -9.7271   -3.0434 F   0  0  0  0  0  0  0  0  0  0  0  0
  -25.6245  -11.3135   -2.1373 F   0  0  0  0  0  0  0  0  0  0  0  0
  -28.0294   -1.2577   -9.5842 O   0  0  0  0  0  0  0  0  0  0  0  0
  -25.1276   -1.6535  -11.7491 C   0  0  0  0  0  0  0  0  0  0  0  0
  -25.8335   -1.5638  -10.5657 C   0  0  0  0  0  0  0  0  0  0  0  0
  -27.2039   -1.4670  -10.6706 C   0  0  0  0  0  0  0  0  0  0  0  0
  -27.8537   -1.5956  -11.8413 N   0  0  0  0  0  0  0  0  0  0  0  0
  -27.0813   -1.7517  -12.9240 C   0  0  0  0  0  0  0  0  0  0  0  0
  -25.7403   -1.7546  -12.9473 N   0  0  0  0  0  0  0  0  0  0  0  0
  -23.6129   -1.6371  -11.7210 C   0  0  0  0  0  0  0  0  0  0  0  0
  -22.5927   -0.2336  -13.4036 C   0  0  0  0  0  0  0  0  0  0  0  0
  -23.0262   -0.3203  -12.0119 N   0  0  0  0  0  0  0  0  0  0  0  0
  -23.7392    0.3900  -11.8491 H   0  0  0  0  0  0  0  0  0  0  0  0
 33 34  1  0  0  0
 34 32  1  0  0  0
 34 35  1  0  0  0
 32 26  1  0  0  0
 26 27  1  0  0  0
 26 31  2  0  0  0
 27 28  2  0  0  0
 28 25  1  0  0  0
 28 29  1  0  0  0
 25  1  1  0  0  0
  1  2  1  0  0  0
  1 12  2  0  0  0
  2  3  2  0  0  0
  3  4  1  0  0  0
  4  5  2  0  0  0
  4  8  1  0  0  0
  5  6  1  0  0  0
  5 12  1  0  0  0
  6  7  2  0  0  0
  7  8  1  0  0  0
  8  9  1  0  0  0
  9 10  2  0  0  0
  9 11  1  0  0  0
 11 14  1  0  0  0
 11 13  1  0  0  0
 14 15  1  0  0  0
 14 20  2  0  0  0
 15 16  2  0  0  0
 16 17  1  0  0  0
 17 18  1  0  0  0
 17 19  2  0  0  0
 19 21  1  0  0  0
 19 20  1  0  0  0
 21 22  1  0  0  0
 21 23  1  0  0  0
 21 24  1  0  0  0
 29 30  2  0  0  0
 30 31  1  0  0  0
M  END
> <minimizedAffinity>
-8.93566

$$$$
