CHEMBL3740554


 39 43  0  0  0  0  0  0  0  0999 V2000
  -29.6007   -6.1873   -6.0095 C   0  0  0  0  0  0  0  0  0  0  0  0
  -30.0445   -6.3202   -4.6932 C   0  0  0  0  0  0  0  0  0  0  0  0
  -29.4355   -7.2719   -3.8678 C   0  0  0  0  0  0  0  0  0  0  0  0
  -28.4524   -8.1401   -4.3868 C   0  0  0  0  0  0  0  0  0  0  0  0
  -27.8284   -9.1551   -3.6445 C   0  0  0  0  0  0  0  0  0  0  0  0
  -28.2988  -10.3938   -4.0326 C   0  0  0  0  0  0  0  0  0  0  0  0
  -28.3513  -10.6264   -5.4088 C   0  0  0  0  0  0  0  0  0  0  0  0
  -28.2323   -9.5474   -6.2972 C   0  0  0  0  0  0  0  0  0  0  0  0
  -28.4172   -8.2547   -5.7823 C   0  0  0  0  0  0  0  0  0  0  0  0
  -28.8207   -7.1692   -6.5843 C   0  0  0  0  0  0  0  0  0  0  0  0
  -26.2529   -9.1246   -3.7510 C   0  0  0  0  0  0  0  0  0  0  0  0
  -25.6660   -8.0749   -3.9918 O   0  0  0  0  0  0  0  0  0  0  0  0
  -25.6329  -10.3667   -3.5774 N   0  0  0  0  0  0  0  0  0  0  0  0
  -26.2277  -11.1186   -3.2657 H   0  0  0  0  0  0  0  0  0  0  0  0
  -24.2931  -10.7646   -3.8329 C   0  0  0  0  0  0  0  0  0  0  0  0
  -23.3443  -11.0774   -2.8589 C   0  0  0  0  0  0  0  0  0  0  0  0
  -22.0430  -11.4639   -3.2312 C   0  0  0  0  0  0  0  0  0  0  0  0
  -21.6753  -11.5367   -4.5748 C   0  0  0  0  0  0  0  0  0  0  0  0
  -22.6042  -11.2047   -5.5534 C   0  0  0  0  0  0  0  0  0  0  0  0
  -23.8973  -10.8167   -5.1836 C   0  0  0  0  0  0  0  0  0  0  0  0
  -30.0817   -5.1220   -6.7355 O   0  0  0  0  0  0  0  0  0  0  0  0
  -28.5140   -2.5362   -8.5290 C   0  0  0  0  0  0  0  0  0  0  0  0
  -27.6546   -1.9635   -7.6773 N   0  0  0  0  0  0  0  0  0  0  0  0
  -27.6285   -2.4578   -6.4271 C   0  0  0  0  0  0  0  0  0  0  0  0
  -28.4153   -3.4989   -6.0037 C   0  0  0  0  0  0  0  0  0  0  0  0
  -29.2296   -4.0566   -6.9641 C   0  0  0  0  0  0  0  0  0  0  0  0
  -29.3035   -3.5707   -8.2146 N   0  0  0  0  0  0  0  0  0  0  0  0
  -28.5422   -2.0065   -9.8240 N   0  0  0  0  0  0  0  0  0  0  0  0
  -29.3451   -2.4247  -10.3019 H   0  0  0  0  0  0  0  0  0  0  0  0
  -25.2608   -1.3406  -12.3758 C   0  0  0  0  0  0  0  0  0  0  0  0
  -25.0539   -1.3779  -10.9971 C   0  0  0  0  0  0  0  0  0  0  0  0
  -26.1369   -1.6179  -10.1489 C   0  0  0  0  0  0  0  0  0  0  0  0
  -27.4316   -1.7962  -10.6599 C   0  0  0  0  0  0  0  0  0  0  0  0
  -27.6056   -1.8187  -12.0507 C   0  0  0  0  0  0  0  0  0  0  0  0
  -26.5303   -1.5674  -12.9120 C   0  0  0  0  0  0  0  0  0  0  0  0
  -23.5173    0.7508  -12.9577 C   0  0  0  0  0  0  0  0  0  0  0  0
  -23.9115   -0.9061  -13.4450 S   0  0  0  0  0  0  0  0  0  0  0  0
  -24.4213   -0.8625  -14.8027 O   0  0  0  0  0  0  0  0  0  0  0  0
  -22.7845   -1.7530  -13.1016 O   0  0  0  0  0  0  0  0  0  0  0  0
 36 37  1  0  0  0
 37 38  2  0  0  0
 37 39  2  0  0  0
 37 30  1  0  0  0
 30 31  1  0  0  0
 30 35  2  0  0  0
 31 32  2  0  0  0
 32 33  1  0  0  0
 33 28  1  0  0  0
 33 34  2  0  0  0
 28 22  1  0  0  0
 28 29  1  0  0  0
 22 23  1  0  0  0
 22 27  2  0  0  0
 23 24  2  0  0  0
 24 25  1  0  0  0
 25 26  2  0  0  0
 26 21  1  0  0  0
 26 27  1  0  0  0
 21  1  1  0  0  0
  1  2  1  0  0  0
  1 10  2  0  0  0
  2  3  2  0  0  0
  3  4  1  0  0  0
  4  5  1  0  0  0
  4  9  2  0  0  0
  5 11  1  0  0  0
  5  6  2  0  0  0
 11 12  2  0  0  0
 11 13  1  0  0  0
 13 15  1  0  0  0
 13 14  1  0  0  0
 15 16  1  0  0  0
 15 20  2  0  0  0
 16 17  2  0  0  0
 17 18  1  0  0  0
 18 19  2  0  0  0
 19 20  1  0  0  0
  6  7  1  0  0  0
  7  8  2  0  0  0
  8  9  1  0  0  0
  9 10  1  0  0  0
 34 35  1  0  0  0
M  END
> <minimizedAffinity>
-9.44872

$$$$
