CHEMBL225090


 37 42  0  0  0  0  0  0  0  0999 V2000
  -27.5785   11.9168  -14.3800 C   0  0  0  0  0  0  0  0  0  0  0  0
  -28.2574   12.6066  -15.4196 C   0  0  0  0  0  0  0  0  0  0  0  0
  -29.6466   12.5611  -15.5565 C   0  0  0  0  0  0  0  0  0  0  0  0
  -30.3338   11.7792  -14.6613 C   0  0  0  0  0  0  0  0  0  0  0  0
  -29.6870   11.0371  -13.6361 C   0  0  0  0  0  0  0  0  0  0  0  0
  -28.3100   11.1210  -13.4794 C   0  0  0  0  0  0  0  0  0  0  0  0
  -30.6634   10.1866  -12.7994 C   0  0  0  0  0  0  0  0  0  0  0  0
  -31.9208   10.6090  -13.4805 C   0  0  0  0  0  0  0  0  0  0  0  0
  -33.3021   10.3988  -13.4703 C   0  0  0  0  0  0  0  0  0  0  0  0
  -33.9143   11.1102  -14.4433 N   0  0  0  0  0  0  0  0  0  0  0  0
  -32.9066   11.7939  -15.0457 N   0  0  0  0  0  0  0  0  0  0  0  0
  -31.7127   11.4864  -14.5092 C   0  0  0  0  0  0  0  0  0  0  0  0
  -33.1304   12.4323  -15.8019 H   0  0  0  0  0  0  0  0  0  0  0  0
  -34.0326    9.5060  -12.5640 C   0  0  0  0  0  0  0  0  0  0  0  0
  -35.2591    9.7927  -12.0021 C   0  0  0  0  0  0  0  0  0  0  0  0
  -35.8212    8.5250  -10.9999 S   0  0  0  0  0  0  0  0  0  0  0  0
  -34.4105    7.5990  -11.2722 C   0  0  0  0  0  0  0  0  0  0  0  0
  -33.5429    8.2319  -12.1386 C   0  0  0  0  0  0  0  0  0  0  0  0
  -34.1788    6.3289  -10.6614 C   0  0  0  0  0  0  0  0  0  0  0  0
  -33.9784    5.2533  -10.1644 C   0  0  0  0  0  0  0  0  0  0  0  0
  -33.7061    3.9260   -9.5821 C   0  0  0  0  0  0  0  0  0  0  0  0
  -32.4715    3.9733   -8.6827 C   0  0  0  0  0  0  0  0  0  0  0  0
  -31.6043    2.8691   -8.9654 O   0  0  0  0  0  0  0  0  0  0  0  0
  -31.0392    2.2604   -7.8714 C   0  0  0  0  0  0  0  0  0  0  0  0
  -29.8097    1.5959   -7.8574 C   0  0  0  0  0  0  0  0  0  0  0  0
  -29.3314    1.0094   -6.6821 C   0  0  0  0  0  0  0  0  0  0  0  0
  -30.0780    1.0824   -5.5096 C   0  0  0  0  0  0  0  0  0  0  0  0
  -31.3043    1.7439   -5.5119 C   0  0  0  0  0  0  0  0  0  0  0  0
  -31.7819    2.3303   -6.6890 C   0  0  0  0  0  0  0  0  0  0  0  0
  -26.0679   12.0401  -14.2516 C   0  0  0  0  0  0  0  0  0  0  0  0
  -22.8965   12.1980  -17.8494 C   0  0  0  0  0  0  0  0  0  0  0  0
  -23.4698   11.3219  -16.8321 N   0  0  0  0  0  0  0  0  0  0  0  0
  -23.2069   11.8408  -15.4802 C   0  0  0  0  0  0  0  0  0  0  0  0
  -23.8507   10.9447  -14.3980 C   0  0  0  0  0  0  0  0  0  0  0  0
  -25.3177   10.7994  -14.5222 N   0  0  0  0  0  0  0  0  0  0  0  0
  -25.5910   10.3140  -15.8990 C   0  0  0  0  0  0  0  0  0  0  0  0
  -24.9187   11.1335  -17.0362 C   0  0  0  0  0  0  0  0  0  0  0  0
 31 32  1  0  0  0
 32 33  1  0  0  0
 32 37  1  0  0  0
 33 34  1  0  0  0
 34 35  1  0  0  0
 35 30  1  0  0  0
 35 36  1  0  0  0
 30  1  1  0  0  0
  1  2  1  0  0  0
  1  6  2  0  0  0
  2  3  2  0  0  0
  3  4  1  0  0  0
  4  5  2  0  0  0
  4 12  1  0  0  0
  5  6  1  0  0  0
  5  7  1  0  0  0
  7  8  1  0  0  0
  8  9  1  0  0  0
  8 12  2  0  0  0
  9 14  1  0  0  0
  9 10  2  0  0  0
 14 15  2  0  0  0
 14 18  1  0  0  0
 15 16  1  0  0  0
 16 17  1  0  0  0
 17 19  1  0  0  0
 17 18  2  0  0  0
 19 20  3  0  0  0
 20 21  1  0  0  0
 21 22  1  0  0  0
 22 23  1  0  0  0
 23 24  1  0  0  0
 24 25  1  0  0  0
 24 29  2  0  0  0
 25 26  2  0  0  0
 26 27  1  0  0  0
 27 28  2  0  0  0
 28 29  1  0  0  0
 10 11  1  0  0  0
 11 12  1  0  0  0
 11 13  1  0  0  0
 36 37  1  0  0  0
M  END
> <minimizedAffinity>
-3.52633

$$$$
