CHEMBL222067


 35 38  0  0  0  0  0  0  0  0999 V2000
  -14.8012   -6.9011  -11.7451 C   0  0  0  0  0  0  0  0  0  0  0  0
  -15.0105   -5.4752  -12.1720 C   0  0  0  0  0  0  0  0  0  0  0  0
  -16.0891   -4.7608  -11.6132 C   0  0  0  0  0  0  0  0  0  0  0  0
  -16.2819   -3.4086  -11.8969 C   0  0  0  0  0  0  0  0  0  0  0  0
  -15.3641   -2.7376  -12.7016 C   0  0  0  0  0  0  0  0  0  0  0  0
  -14.2888   -3.4355  -13.2338 C   0  0  0  0  0  0  0  0  0  0  0  0
  -14.1491   -4.8258  -13.0804 C   0  0  0  0  0  0  0  0  0  0  0  0
  -15.5245   -1.2889  -12.9638 C   0  0  0  0  0  0  0  0  0  0  0  0
  -15.6995   -0.5462  -12.0054 O   0  0  0  0  0  0  0  0  0  0  0  0
  -15.5087   -0.9188  -14.3049 N   0  0  0  0  0  0  0  0  0  0  0  0
  -15.5620   -1.6717  -14.9877 H   0  0  0  0  0  0  0  0  0  0  0  0
  -15.6126    0.3940  -14.8018 C   0  0  0  0  0  0  0  0  0  0  0  0
  -16.8347    0.9792  -15.1338 C   0  0  0  0  0  0  0  0  0  0  0  0
  -16.8859    2.2510  -15.7088 C   0  0  0  0  0  0  0  0  0  0  0  0
  -15.7097    2.9679  -15.9569 C   0  0  0  0  0  0  0  0  0  0  0  0
  -14.4864    2.4067  -15.5636 C   0  0  0  0  0  0  0  0  0  0  0  0
  -14.4390    1.1334  -14.9785 C   0  0  0  0  0  0  0  0  0  0  0  0
  -15.7536    4.3049  -16.6544 C   0  0  0  0  0  0  0  0  0  0  0  0
  -15.9532    4.2158  -17.9991 F   0  0  0  0  0  0  0  0  0  0  0  0
  -16.7464    5.1088  -16.1826 F   0  0  0  0  0  0  0  0  0  0  0  0
  -14.5977    5.0091  -16.4972 F   0  0  0  0  0  0  0  0  0  0  0  0
  -13.1435   -5.4968  -13.8032 N   0  0  0  0  0  0  0  0  0  0  0  0
  -12.4003   -5.9115  -13.2441 H   0  0  0  0  0  0  0  0  0  0  0  0
  -13.3158   -6.2596  -14.9977 C   0  0  0  0  0  0  0  0  0  0  0  0
  -13.8100   -5.6306  -16.1035 N   0  0  0  0  0  0  0  0  0  0  0  0
  -13.8166   -6.2706  -17.2847 C   0  0  0  0  0  0  0  0  0  0  0  0
  -13.3729   -7.5603  -17.4413 C   0  0  0  0  0  0  0  0  0  0  0  0
  -12.9195   -8.2319  -16.3095 C   0  0  0  0  0  0  0  0  0  0  0  0
  -12.8645   -7.5973  -15.0472 C   0  0  0  0  0  0  0  0  0  0  0  0
  -12.3133   -8.2988  -13.8640 C   0  0  0  0  0  0  0  0  0  0  0  0
  -12.8154   -9.5105  -13.4176 C   0  0  0  0  0  0  0  0  0  0  0  0
  -12.1662  -10.0993  -12.3565 C   0  0  0  0  0  0  0  0  0  0  0  0
  -11.1018   -9.5571  -11.7453 N   0  0  0  0  0  0  0  0  0  0  0  0
  -10.6973   -8.3776  -12.2304 C   0  0  0  0  0  0  0  0  0  0  0  0
  -11.2529   -7.7102  -13.2555 N   0  0  0  0  0  0  0  0  0  0  0  0
  1  2  1  0  0  0
  2  3  1  0  0  0
  2  7  2  0  0  0
  3  4  2  0  0  0
  4  5  1  0  0  0
  5  8  1  0  0  0
  5  6  2  0  0  0
  8  9  2  0  0  0
  8 10  1  0  0  0
 10 12  1  0  0  0
 10 11  1  0  0  0
 12 13  1  0  0  0
 12 17  2  0  0  0
 13 14  2  0  0  0
 14 15  1  0  0  0
 15 18  1  0  0  0
 15 16  2  0  0  0
 18 19  1  0  0  0
 18 20  1  0  0  0
 18 21  1  0  0  0
 16 17  1  0  0  0
  6  7  1  0  0  0
  7 22  1  0  0  0
 22 24  1  0  0  0
 22 23  1  0  0  0
 24 25  1  0  0  0
 24 29  2  0  0  0
 25 26  2  0  0  0
 26 27  1  0  0  0
 27 28  2  0  0  0
 28 29  1  0  0  0
 29 30  1  0  0  0
 30 31  1  0  0  0
 30 35  2  0  0  0
 31 32  2  0  0  0
 32 33  1  0  0  0
 33 34  2  0  0  0
 34 35  1  0  0  0
M  END
> <minimizedAffinity>
-8.13521

$$$$
