CHEMBL1254927


 40 44  0  0  0  0  0  0  0  0999 V2000
  -14.8759   -1.5640  -12.1596 N   0  0  0  0  0  0  0  0  0  0  0  0
  -15.3620   -0.8806  -13.2551 C   0  0  0  0  0  0  0  0  0  0  0  0
  -15.1882   -1.2108  -14.4286 O   0  0  0  0  0  0  0  0  0  0  0  0
  -16.0615    0.2644  -12.9112 N   0  0  0  0  0  0  0  0  0  0  0  0
  -15.2854   -1.3402  -11.2551 H   0  0  0  0  0  0  0  0  0  0  0  0
  -15.6933    0.7398  -12.0991 H   0  0  0  0  0  0  0  0  0  0  0  0
  -12.2909   -4.9426  -12.2740 C   0  0  0  0  0  0  0  0  0  0  0  0
  -11.8089   -3.6698  -12.5612 C   0  0  0  0  0  0  0  0  0  0  0  0
  -12.6602   -2.5664  -12.5373 C   0  0  0  0  0  0  0  0  0  0  0  0
  -14.0078   -2.6907  -12.1891 C   0  0  0  0  0  0  0  0  0  0  0  0
  -14.4773   -3.9745  -11.8429 C   0  0  0  0  0  0  0  0  0  0  0  0
  -16.1165   -4.2149  -11.3581 Cl  0  0  0  0  0  0  0  0  0  0  0  0
  -13.6226   -5.0922  -11.8799 C   0  0  0  0  0  0  0  0  0  0  0  0
  -11.4962   -6.0706  -12.2975 O   0  0  0  0  0  0  0  0  0  0  0  0
  -11.3401   -5.9516  -15.3822 C   0  0  0  0  0  0  0  0  0  0  0  0
  -12.0635   -7.1767  -15.1316 N   0  0  0  0  0  0  0  0  0  0  0  0
  -12.5463   -8.0075  -16.1106 C   0  0  0  0  0  0  0  0  0  0  0  0
  -13.1531   -9.0861  -15.4966 C   0  0  0  0  0  0  0  0  0  0  0  0
  -13.0250   -8.8956  -14.1013 C   0  0  0  0  0  0  0  0  0  0  0  0
  -13.4652   -9.6867  -13.1016 N   0  0  0  0  0  0  0  0  0  0  0  0
  -13.1665   -9.2203  -11.8845 C   0  0  0  0  0  0  0  0  0  0  0  0
  -12.5122   -8.0913  -11.5738 N   0  0  0  0  0  0  0  0  0  0  0  0
  -12.1214   -7.2821  -12.5871 C   0  0  0  0  0  0  0  0  0  0  0  0
  -12.3447   -7.7013  -13.8871 C   0  0  0  0  0  0  0  0  0  0  0  0
  -16.6264    1.0820  -13.9200 C   0  0  0  0  0  0  0  0  0  0  0  0
  -18.0157    1.1089  -14.0719 C   0  0  0  0  0  0  0  0  0  0  0  0
  -18.6323    1.8939  -15.0573 C   0  0  0  0  0  0  0  0  0  0  0  0
  -17.7954    2.6251  -15.9147 C   0  0  0  0  0  0  0  0  0  0  0  0
  -16.3971    2.6126  -15.7922 C   0  0  0  0  0  0  0  0  0  0  0  0
  -15.8206    1.8477  -14.7703 C   0  0  0  0  0  0  0  0  0  0  0  0
  -20.0003    1.9640  -15.1950 N   0  0  0  0  0  0  0  0  0  0  0  0
  -20.7506    3.2245  -15.2758 C   0  0  0  0  0  0  0  0  0  0  0  0
  -21.7740    3.3006  -14.1355 C   0  0  0  0  0  0  0  0  0  0  0  0
  -22.6291    2.1437  -14.1113 O   0  0  0  0  0  0  0  0  0  0  0  0
  -21.8500    0.9499  -13.9416 C   0  0  0  0  0  0  0  0  0  0  0  0
  -20.8393    0.7611  -15.0865 C   0  0  0  0  0  0  0  0  0  0  0  0
  -15.5372    3.3958  -16.7494 C   0  0  0  0  0  0  0  0  0  0  0  0
  -16.2553    4.1303  -17.6461 F   0  0  0  0  0  0  0  0  0  0  0  0
  -14.7096    4.2783  -16.1284 F   0  0  0  0  0  0  0  0  0  0  0  0
  -14.7346    2.5907  -17.5009 F   0  0  0  0  0  0  0  0  0  0  0  0
 15 16  1  0  0  0
 16 17  1  0  0  0
 16 24  1  0  0  0
 17 18  2  0  0  0
 18 19  1  0  0  0
 19 20  1  0  0  0
 19 24  2  0  0  0
 20 21  2  0  0  0
 21 22  1  0  0  0
 22 23  2  0  0  0
 23 14  1  0  0  0
 23 24  1  0  0  0
 14  7  1  0  0  0
  7  8  1  0  0  0
  7 13  2  0  0  0
  8  9  2  0  0  0
  9 10  1  0  0  0
 10  1  1  0  0  0
 10 11  2  0  0  0
  1  2  1  0  0  0
  1  5  1  0  0  0
  2  3  2  0  0  0
  2  4  1  0  0  0
  4 25  1  0  0  0
  4  6  1  0  0  0
 25 26  1  0  0  0
 25 30  2  0  0  0
 26 27  2  0  0  0
 27 31  1  0  0  0
 27 28  1  0  0  0
 31 32  1  0  0  0
 31 36  1  0  0  0
 32 33  1  0  0  0
 33 34  1  0  0  0
 34 35  1  0  0  0
 35 36  1  0  0  0
 28 29  2  0  0  0
 29 37  1  0  0  0
 29 30  1  0  0  0
 37 38  1  0  0  0
 37 39  1  0  0  0
 37 40  1  0  0  0
 11 12  1  0  0  0
 11 13  1  0  0  0
M  END
> <minimizedAffinity>
-8.40428

$$$$
