CHEMBL3741641


 41 45  0  0  0  0  0  0  0  0999 V2000
  -23.4530   -1.2174  -11.4445 O   0  0  0  0  0  0  0  0  0  0  0  0
  -22.8229   -0.5010  -12.4357 C   0  0  0  0  0  0  0  0  0  0  0  0
  -22.8946   -1.0026  -13.7332 C   0  0  0  0  0  0  0  0  0  0  0  0
  -22.0885   -0.4348  -14.7279 C   0  0  0  0  0  0  0  0  0  0  0  0
  -21.2951    0.6999  -14.4366 C   0  0  0  0  0  0  0  0  0  0  0  0
  -20.4869    1.3634  -15.3719 C   0  0  0  0  0  0  0  0  0  0  0  0
  -21.1243    2.4952  -15.8016 C   0  0  0  0  0  0  0  0  0  0  0  0
  -21.6059    3.3452  -14.7789 C   0  0  0  0  0  0  0  0  0  0  0  0
  -21.7145    2.8165  -13.4772 C   0  0  0  0  0  0  0  0  0  0  0  0
  -21.6815    1.4188  -13.3070 C   0  0  0  0  0  0  0  0  0  0  0  0
  -22.2639    0.7560  -12.2198 C   0  0  0  0  0  0  0  0  0  0  0  0
  -19.0441    1.7122  -14.8057 C   0  0  0  0  0  0  0  0  0  0  0  0
  -18.8087    2.8301  -14.3655 O   0  0  0  0  0  0  0  0  0  0  0  0
  -18.0947    0.6716  -14.9084 N   0  0  0  0  0  0  0  0  0  0  0  0
  -18.4150   -0.1897  -15.3366 H   0  0  0  0  0  0  0  0  0  0  0  0
  -16.7014    0.7034  -14.6353 C   0  0  0  0  0  0  0  0  0  0  0  0
  -16.1286    0.3342  -13.4195 C   0  0  0  0  0  0  0  0  0  0  0  0
  -14.7406    0.3959  -13.2307 C   0  0  0  0  0  0  0  0  0  0  0  0
  -13.9024    0.8314  -14.2547 C   0  0  0  0  0  0  0  0  0  0  0  0
  -14.4578    1.2406  -15.4667 C   0  0  0  0  0  0  0  0  0  0  0  0
  -15.8471    1.1583  -15.6631 C   0  0  0  0  0  0  0  0  0  0  0  0
  -26.7003   -2.1813  -10.4696 C   0  0  0  0  0  0  0  0  0  0  0  0
  -27.5358   -1.4435  -11.2130 N   0  0  0  0  0  0  0  0  0  0  0  0
  -26.9733   -0.5619  -12.0599 C   0  0  0  0  0  0  0  0  0  0  0  0
  -25.6179   -0.3897  -12.1923 C   0  0  0  0  0  0  0  0  0  0  0  0
  -24.8363   -1.2267  -11.4286 C   0  0  0  0  0  0  0  0  0  0  0  0
  -25.3622   -2.1002  -10.5526 N   0  0  0  0  0  0  0  0  0  0  0  0
  -27.2950   -3.0703   -9.5621 N   0  0  0  0  0  0  0  0  0  0  0  0
  -27.8392   -3.7272  -10.1098 H   0  0  0  0  0  0  0  0  0  0  0  0
  -28.2824   -1.0833   -6.5510 C   0  0  0  0  0  0  0  0  0  0  0  0
  -27.6806   -1.4569   -7.7590 C   0  0  0  0  0  0  0  0  0  0  0  0
  -27.9194   -2.6998   -8.3545 C   0  0  0  0  0  0  0  0  0  0  0  0
  -28.8464   -3.5565   -7.7631 C   0  0  0  0  0  0  0  0  0  0  0  0
  -29.4262   -3.2308   -6.5299 C   0  0  0  0  0  0  0  0  0  0  0  0
  -29.1626   -1.9823   -5.9222 C   0  0  0  0  0  0  0  0  0  0  0  0
  -28.6916    1.2555   -6.3453 C   0  0  0  0  0  0  0  0  0  0  0  0
  -27.9743    0.0987   -5.9262 O   0  0  0  0  0  0  0  0  0  0  0  0
  -30.2966   -4.0739   -5.8758 O   0  0  0  0  0  0  0  0  0  0  0  0
  -29.9086   -5.4439   -5.8414 C   0  0  0  0  0  0  0  0  0  0  0  0
  -29.7614   -1.7938   -4.6974 O   0  0  0  0  0  0  0  0  0  0  0  0
  -29.0968   -2.3269   -3.5607 C   0  0  0  0  0  0  0  0  0  0  0  0
 36 37  1  0  0  0
 37 30  1  0  0  0
 30 31  1  0  0  0
 30 35  2  0  0  0
 31 32  2  0  0  0
 32 28  1  0  0  0
 32 33  1  0  0  0
 28 22  1  0  0  0
 28 29  1  0  0  0
 22 23  1  0  0  0
 22 27  2  0  0  0
 23 24  2  0  0  0
 24 25  1  0  0  0
 25 26  2  0  0  0
 26  1  1  0  0  0
 26 27  1  0  0  0
  1  2  1  0  0  0
  2  3  1  0  0  0
  2 11  2  0  0  0
  3  4  2  0  0  0
  4  5  1  0  0  0
  5  6  1  0  0  0
  5 10  2  0  0  0
  6 12  1  0  0  0
  6  7  2  0  0  0
 12 13  2  0  0  0
 12 14  1  0  0  0
 14 16  1  0  0  0
 14 15  1  0  0  0
 16 17  1  0  0  0
 16 21  2  0  0  0
 17 18  2  0  0  0
 18 19  1  0  0  0
 19 20  2  0  0  0
 20 21  1  0  0  0
  7  8  1  0  0  0
  8  9  2  0  0  0
  9 10  1  0  0  0
 10 11  1  0  0  0
 33 34  2  0  0  0
 34 38  1  0  0  0
 34 35  1  0  0  0
 38 39  1  0  0  0
 35 40  1  0  0  0
 40 41  1  0  0  0
M  END
> <minimizedAffinity>
-9.43072

$$$$
