CHEMBL212195


 43 47  0  0  0  0  0  0  0  0999 V2000
  -29.0231   -4.1920   -4.8211 C   0  0  0  0  0  0  0  0  0  0  0  0
  -28.7193   -3.5942   -6.1730 C   0  0  0  0  0  0  0  0  0  0  0  0
  -28.2985   -2.2432   -6.1843 C   0  0  0  0  0  0  0  0  0  0  0  0
  -27.9452   -1.5913   -7.3668 C   0  0  0  0  0  0  0  0  0  0  0  0
  -28.0270   -2.2827   -8.5682 C   0  0  0  0  0  0  0  0  0  0  0  0
  -28.4879   -3.6117   -8.5714 C   0  0  0  0  0  0  0  0  0  0  0  0
  -28.8364   -4.3113   -7.3920 C   0  0  0  0  0  0  0  0  0  0  0  0
  -29.2645   -5.7389   -7.5047 C   0  0  0  0  0  0  0  0  0  0  0  0
  -28.4045   -6.7697   -7.9136 C   0  0  0  0  0  0  0  0  0  0  0  0
  -28.8517   -8.0916   -8.0800 C   0  0  0  0  0  0  0  0  0  0  0  0
  -30.1458   -8.4645   -7.7633 C   0  0  0  0  0  0  0  0  0  0  0  0
  -30.5188   -9.7451   -7.8818 N   0  0  0  0  0  0  0  0  0  0  0  0
  -31.7397  -10.1024   -7.4567 C   0  0  0  0  0  0  0  0  0  0  0  0
  -32.6431   -9.2106   -7.0084 N   0  0  0  0  0  0  0  0  0  0  0  0
  -32.2501   -7.9238   -6.9243 C   0  0  0  0  0  0  0  0  0  0  0  0
  -30.9957   -7.4766   -7.2846 C   0  0  0  0  0  0  0  0  0  0  0  0
  -30.5739   -6.1318   -7.1745 C   0  0  0  0  0  0  0  0  0  0  0  0
  -32.0527  -11.4401   -7.3394 N   0  0  0  0  0  0  0  0  0  0  0  0
  -31.8742  -12.2462   -8.5363 C   0  0  0  0  0  0  0  0  0  0  0  0
  -31.9701  -12.1159   -6.0487 C   0  0  0  0  0  0  0  0  0  0  0  0
  -30.5335  -12.4658   -5.6089 C   0  0  0  0  0  0  0  0  0  0  0  0
  -30.0051  -11.3716   -4.6796 C   0  0  0  0  0  0  0  0  0  0  0  0
  -28.6177  -11.5239   -4.2162 N   0  0  0  0  0  0  0  0  0  0  0  0
  -27.9756  -10.2949   -3.6982 C   0  0  0  0  0  0  0  0  0  0  0  0
  -27.4829   -9.2884   -4.7598 C   0  0  0  0  0  0  0  0  0  0  0  0
  -26.7184   -9.9112   -5.8005 O   0  0  0  0  0  0  0  0  0  0  0  0
  -27.4521  -10.9909   -6.3852 C   0  0  0  0  0  0  0  0  0  0  0  0
  -27.7780  -12.0502   -5.3201 C   0  0  0  0  0  0  0  0  0  0  0  0
  -27.7092   -1.6607   -9.8830 C   0  0  0  0  0  0  0  0  0  0  0  0
  -28.3073   -0.6266  -10.1606 O   0  0  0  0  0  0  0  0  0  0  0  0
  -26.8194   -2.3471  -10.7012 N   0  0  0  0  0  0  0  0  0  0  0  0
  -26.5483   -3.2733  -10.4012 H   0  0  0  0  0  0  0  0  0  0  0  0
  -26.4095   -1.9480  -12.0058 C   0  0  0  0  0  0  0  0  0  0  0  0
  -27.2696   -2.0835  -13.1021 C   0  0  0  0  0  0  0  0  0  0  0  0
  -26.8680   -1.7455  -14.3908 C   0  0  0  0  0  0  0  0  0  0  0  0
  -25.5902   -1.2561  -14.6086 C   0  0  0  0  0  0  0  0  0  0  0  0
  -24.6974   -1.0763  -13.5370 C   0  0  0  0  0  0  0  0  0  0  0  0
  -25.1131   -1.4060  -12.2135 C   0  0  0  0  0  0  0  0  0  0  0  0
  -24.1774   -1.1973  -11.0457 C   0  0  0  0  0  0  0  0  0  0  0  0
  -23.3129   -0.5491  -13.8558 C   0  0  0  0  0  0  0  0  0  0  0  0
  -22.3272   -1.4839  -13.7248 F   0  0  0  0  0  0  0  0  0  0  0  0
  -23.2066   -0.0863  -15.1326 F   0  0  0  0  0  0  0  0  0  0  0  0
  -22.9419    0.4820  -13.0457 F   0  0  0  0  0  0  0  0  0  0  0  0
  1  2  1  0  0  0
  2  3  1  0  0  0
  2  7  2  0  0  0
  3  4  2  0  0  0
  4  5  1  0  0  0
  5 29  1  0  0  0
  5  6  2  0  0  0
 29 30  2  0  0  0
 29 31  1  0  0  0
 31 33  1  0  0  0
 31 32  1  0  0  0
 33 34  1  0  0  0
 33 38  2  0  0  0
 34 35  2  0  0  0
 35 36  1  0  0  0
 36 37  2  0  0  0
 37 40  1  0  0  0
 37 38  1  0  0  0
 40 41  1  0  0  0
 40 42  1  0  0  0
 40 43  1  0  0  0
 38 39  1  0  0  0
  6  7  1  0  0  0
  7  8  1  0  0  0
  8  9  1  0  0  0
  8 17  2  0  0  0
  9 10  2  0  0  0
 10 11  1  0  0  0
 11 12  1  0  0  0
 11 16  2  0  0  0
 12 13  2  0  0  0
 13 18  1  0  0  0
 13 14  1  0  0  0
 18 19  1  0  0  0
 18 20  1  0  0  0
 20 21  1  0  0  0
 21 22  1  0  0  0
 22 23  1  0  0  0
 23 24  1  0  0  0
 23 28  1  0  0  0
 24 25  1  0  0  0
 25 26  1  0  0  0
 26 27  1  0  0  0
 27 28  1  0  0  0
 14 15  2  0  0  0
 15 16  1  0  0  0
 16 17  1  0  0  0
M  END
> <minimizedAffinity>
-10.33140

$$$$
