CHEMBL392935


 25 27  0  0  0  0  0  0  0  0999 V2000
  -29.0979   -7.0217   -4.8615 C   0  0  0  0  0  0  0  0  0  0  0  0
  -29.1259   -7.6816   -3.6424 C   0  0  0  0  0  0  0  0  0  0  0  0
  -28.7638   -9.0079   -3.9219 C   0  0  0  0  0  0  0  0  0  0  0  0
  -28.4404   -9.1824   -5.2002 N   0  0  0  0  0  0  0  0  0  0  0  0
  -28.6199   -7.9633   -5.7595 N   0  0  0  0  0  0  0  0  0  0  0  0
  -28.4515   -4.7356   -5.1776 N   0  0  0  0  0  0  0  0  0  0  0  0
  -29.4755   -5.6672   -5.2209 C   0  0  0  0  0  0  0  0  0  0  0  0
  -30.6398   -5.3992   -5.5036 O   0  0  0  0  0  0  0  0  0  0  0  0
  -27.5360   -5.0568   -4.8955 H   0  0  0  0  0  0  0  0  0  0  0  0
  -28.8543   -0.5709   -5.8703 C   0  0  0  0  0  0  0  0  0  0  0  0
  -28.2786   -1.3874   -6.8438 C   0  0  0  0  0  0  0  0  0  0  0  0
  -28.1295   -2.7557   -6.6294 C   0  0  0  0  0  0  0  0  0  0  0  0
  -28.5596   -3.3487   -5.4402 C   0  0  0  0  0  0  0  0  0  0  0  0
  -29.1378   -2.5312   -4.4602 C   0  0  0  0  0  0  0  0  0  0  0  0
  -29.2884   -1.1538   -4.6746 C   0  0  0  0  0  0  0  0  0  0  0  0
  -30.4420    1.3701   -5.8762 C   0  0  0  0  0  0  0  0  0  0  0  0
  -29.0195    0.9010   -6.1411 C   0  0  0  0  0  0  0  0  0  0  0  0
  -28.3876   -7.8302   -7.1976 C   0  0  0  0  0  0  0  0  0  0  0  0
  -29.6478   -7.4731   -7.9925 C   0  0  0  0  0  0  0  0  0  0  0  0
  -30.7393   -8.5202   -7.9184 C   0  0  0  0  0  0  0  0  0  0  0  0
  -30.5456   -9.8128   -8.4266 C   0  0  0  0  0  0  0  0  0  0  0  0
  -31.5481  -10.7542   -8.2526 C   0  0  0  0  0  0  0  0  0  0  0  0
  -32.7206  -10.5032   -7.6324 N   0  0  0  0  0  0  0  0  0  0  0  0
  -32.8971   -9.2495   -7.1655 C   0  0  0  0  0  0  0  0  0  0  0  0
  -31.9544   -8.2370   -7.2873 C   0  0  0  0  0  0  0  0  0  0  0  0
 16 17  1  0  0  0
 17 10  1  0  0  0
 10 11  1  0  0  0
 10 15  2  0  0  0
 11 12  2  0  0  0
 12 13  1  0  0  0
 13  6  1  0  0  0
 13 14  2  0  0  0
  6  7  1  0  0  0
  6  9  1  0  0  0
  7  8  2  0  0  0
  7  1  1  0  0  0
  1  2  2  0  0  0
  1  5  1  0  0  0
  2  3  1  0  0  0
  3  4  2  0  0  0
  4  5  1  0  0  0
  5 18  1  0  0  0
 18 19  1  0  0  0
 19 20  1  0  0  0
 20 21  1  0  0  0
 20 25  2  0  0  0
 21 22  2  0  0  0
 22 23  1  0  0  0
 23 24  2  0  0  0
 24 25  1  0  0  0
 14 15  1  0  0  0
M  END
> <minimizedAffinity>
-7.53342

$$$$
