CHEMBL4449964


 40 44  0  0  0  0  0  0  0  0999 V2000
  -29.4027   -3.8127   -8.1895 C   0  0  0  0  0  0  0  0  0  0  0  0
  -30.2738   -3.4249   -7.1654 C   0  0  0  0  0  0  0  0  0  0  0  0
  -29.6053   -3.3499   -5.9434 C   0  0  0  0  0  0  0  0  0  0  0  0
  -30.0717   -4.0459   -4.8112 C   0  0  0  0  0  0  0  0  0  0  0  0
  -29.1357   -4.4703   -3.8708 C   0  0  0  0  0  0  0  0  0  0  0  0
  -27.8110   -4.0374   -3.9723 C   0  0  0  0  0  0  0  0  0  0  0  0
  -27.3980   -3.2065   -5.0030 C   0  0  0  0  0  0  0  0  0  0  0  0
  -28.2619   -2.9268   -6.0436 C   0  0  0  0  0  0  0  0  0  0  0  0
  -27.7746   -2.4538   -7.2016 N   0  0  0  0  0  0  0  0  0  0  0  0
  -28.4497   -2.8023   -8.3180 C   0  0  0  0  0  0  0  0  0  0  0  0
  -28.4194   -8.0247   -8.5226 C   0  0  0  0  0  0  0  0  0  0  0  0
  -27.5138   -7.0465   -8.9137 C   0  0  0  0  0  0  0  0  0  0  0  0
  -27.7247   -5.7048   -8.5655 C   0  0  0  0  0  0  0  0  0  0  0  0
  -28.9086   -5.2773   -7.9177 C   0  0  0  0  0  0  0  0  0  0  0  0
  -29.7393   -6.2947   -7.4031 C   0  0  0  0  0  0  0  0  0  0  0  0
  -29.4989   -7.6492   -7.7184 C   0  0  0  0  0  0  0  0  0  0  0  0
  -29.4645   -9.8077   -9.7035 C   0  0  0  0  0  0  0  0  0  0  0  0
  -28.3814   -9.3397   -8.9033 O   0  0  0  0  0  0  0  0  0  0  0  0
  -29.3152   -5.4302   -2.9161 O   0  0  0  0  0  0  0  0  0  0  0  0
  -29.5340   -6.7646   -3.3348 C   0  0  0  0  0  0  0  0  0  0  0  0
  -28.4495   -1.9567   -9.4524 N   0  0  0  0  0  0  0  0  0  0  0  0
  -29.3828   -1.9041   -9.8448 H   0  0  0  0  0  0  0  0  0  0  0  0
  -27.4509   -1.8169  -10.4459 C   0  0  0  0  0  0  0  0  0  0  0  0
  -26.1273   -1.6049  -10.0504 C   0  0  0  0  0  0  0  0  0  0  0  0
  -25.1234   -1.3211  -10.9898 C   0  0  0  0  0  0  0  0  0  0  0  0
  -25.4028   -1.2641  -12.3530 C   0  0  0  0  0  0  0  0  0  0  0  0
  -26.6820   -1.6447  -12.7710 C   0  0  0  0  0  0  0  0  0  0  0  0
  -27.6791   -1.9406  -11.8238 C   0  0  0  0  0  0  0  0  0  0  0  0
  -24.4842   -0.8005  -13.3285 N   0  0  0  0  0  0  0  0  0  0  0  0
  -23.1872   -0.3888  -13.0875 C   0  0  0  0  0  0  0  0  0  0  0  0
  -22.5729   -0.5201  -12.0285 O   0  0  0  0  0  0  0  0  0  0  0  0
  -24.8458   -0.5747  -14.2502 H   0  0  0  0  0  0  0  0  0  0  0  0
  -22.4625    0.2504  -14.2785 C   0  0  0  0  0  0  0  0  0  0  0  0
  -21.2162    0.9708  -13.9422 N   0  0  0  0  0  0  0  0  0  0  0  0
  -20.0698    0.5588  -14.7860 C   0  0  0  0  0  0  0  0  0  0  0  0
  -18.8100    1.3797  -14.4149 C   0  0  0  0  0  0  0  0  0  0  0  0
  -18.9538    2.8376  -14.5897 N   0  0  0  0  0  0  0  0  0  0  0  0
  -18.9140    3.2142  -16.0006 C   0  0  0  0  0  0  0  0  0  0  0  0
  -20.1932    3.2936  -13.9293 C   0  0  0  0  0  0  0  0  0  0  0  0
  -21.4457    2.4216  -14.1909 C   0  0  0  0  0  0  0  0  0  0  0  0
 17 18  1  0  0  0
 18 11  1  0  0  0
 11 12  1  0  0  0
 11 16  2  0  0  0
 12 13  2  0  0  0
 13 14  1  0  0  0
 14  1  1  0  0  0
 14 15  2  0  0  0
  1  2  1  0  0  0
  1 10  2  0  0  0
  2  3  2  0  0  0
  3  4  1  0  0  0
  3  8  1  0  0  0
  4  5  2  0  0  0
  5 19  1  0  0  0
  5  6  1  0  0  0
 19 20  1  0  0  0
  6  7  2  0  0  0
  7  8  1  0  0  0
  8  9  2  0  0  0
  9 10  1  0  0  0
 10 21  1  0  0  0
 21 23  1  0  0  0
 21 22  1  0  0  0
 23 24  1  0  0  0
 23 28  2  0  0  0
 24 25  2  0  0  0
 25 26  1  0  0  0
 26 29  1  0  0  0
 26 27  2  0  0  0
 29 30  1  0  0  0
 29 32  1  0  0  0
 30 31  2  0  0  0
 30 33  1  0  0  0
 33 34  1  0  0  0
 34 35  1  0  0  0
 34 40  1  0  0  0
 35 36  1  0  0  0
 36 37  1  0  0  0
 37 38  1  0  0  0
 37 39  1  0  0  0
 39 40  1  0  0  0
 27 28  1  0  0  0
 15 16  1  0  0  0
M  END
> <minimizedAffinity>
-8.89096

$$$$
