CHEMBL4238493


 29 32  0  0  0  0  0  0  0  0999 V2000
  -28.4687   -6.3521   -7.0273 C   0  0  0  0  0  0  0  0  0  0  0  0
  -28.3172   -7.0557   -5.8909 N   0  0  0  0  0  0  0  0  0  0  0  0
  -28.2585   -6.3649   -4.7418 C   0  0  0  0  0  0  0  0  0  0  0  0
  -28.3864   -5.0001   -4.6854 C   0  0  0  0  0  0  0  0  0  0  0  0
  -28.3676   -4.3405   -5.9035 C   0  0  0  0  0  0  0  0  0  0  0  0
  -28.3995   -5.0052   -7.0782 N   0  0  0  0  0  0  0  0  0  0  0  0
  -28.6084   -2.8873   -5.9068 C   0  0  0  0  0  0  0  0  0  0  0  0
  -27.7090   -1.9485   -6.4251 C   0  0  0  0  0  0  0  0  0  0  0  0
  -27.9746   -0.5750   -6.2987 C   0  0  0  0  0  0  0  0  0  0  0  0
  -29.1810   -0.1333   -5.7590 C   0  0  0  0  0  0  0  0  0  0  0  0
  -29.5129    1.5530   -5.6514 Cl  0  0  0  0  0  0  0  0  0  0  0  0
  -30.0770   -1.0364   -5.2002 C   0  0  0  0  0  0  0  0  0  0  0  0
  -29.7136   -2.3824   -5.1678 C   0  0  0  0  0  0  0  0  0  0  0  0
  -30.3683   -3.3932   -3.8100 S   0  0  0  0  0  0  0  0  0  0  0  0
  -28.7569   -4.2439   -3.4566 C   0  0  0  0  0  0  0  0  0  0  0  0
  -28.8666   -7.1217   -8.1270 N   0  0  0  0  0  0  0  0  0  0  0  0
  -28.5613   -6.6811   -8.9793 H   0  0  0  0  0  0  0  0  0  0  0  0
  -29.9167  -10.6260   -8.8283 C   0  0  0  0  0  0  0  0  0  0  0  0
  -29.1505   -9.4663   -8.7267 C   0  0  0  0  0  0  0  0  0  0  0  0
  -29.6699   -8.2581   -8.2437 C   0  0  0  0  0  0  0  0  0  0  0  0
  -31.0338   -8.2162   -7.9303 C   0  0  0  0  0  0  0  0  0  0  0  0
  -31.8429   -9.3572   -8.0631 C   0  0  0  0  0  0  0  0  0  0  0  0
  -31.2755  -10.5795   -8.4824 C   0  0  0  0  0  0  0  0  0  0  0  0
  -27.9848  -11.7788   -9.5981 C   0  0  0  0  0  0  0  0  0  0  0  0
  -29.3798  -11.7991   -9.3000 O   0  0  0  0  0  0  0  0  0  0  0  0
  -33.1739   -9.3830   -7.7175 O   0  0  0  0  0  0  0  0  0  0  0  0
  -33.5803   -8.4418   -6.7308 C   0  0  0  0  0  0  0  0  0  0  0  0
  -32.1546  -11.6355   -8.5745 O   0  0  0  0  0  0  0  0  0  0  0  0
  -32.2736  -12.4656   -7.4283 C   0  0  0  0  0  0  0  0  0  0  0  0
 24 25  1  0  0  0
 25 18  1  0  0  0
 18 19  1  0  0  0
 18 23  2  0  0  0
 19 20  2  0  0  0
 20 16  1  0  0  0
 20 21  1  0  0  0
 16  1  1  0  0  0
 16 17  1  0  0  0
  1  2  1  0  0  0
  1  6  2  0  0  0
  2  3  2  0  0  0
  3  4  1  0  0  0
  4  5  2  0  0  0
  4 15  1  0  0  0
  5  6  1  0  0  0
  5  7  1  0  0  0
  7  8  1  0  0  0
  7 13  2  0  0  0
  8  9  2  0  0  0
  9 10  1  0  0  0
 10 11  1  0  0  0
 10 12  2  0  0  0
 12 13  1  0  0  0
 13 14  1  0  0  0
 14 15  1  0  0  0
 21 22  2  0  0  0
 22 26  1  0  0  0
 22 23  1  0  0  0
 26 27  1  0  0  0
 23 28  1  0  0  0
 28 29  1  0  0  0
M  END
> <minimizedAffinity>
-7.56422

$$$$
