CHEMBL1276890


 32 36  0  0  0  0  0  0  0  0999 V2000
  -27.3310   -0.1700   -7.5205 C   0  0  0  0  0  0  0  0  0  0  0  0
  -27.6007   -1.5444   -8.0356 C   0  0  0  0  0  0  0  0  0  0  0  0
  -27.0286   -2.1696   -9.1407 C   0  0  0  0  0  0  0  0  0  0  0  0
  -27.5648   -3.4322   -9.2267 N   0  0  0  0  0  0  0  0  0  0  0  0
  -28.4683   -3.6120   -8.2194 C   0  0  0  0  0  0  0  0  0  0  0  0
  -28.5326   -2.4644   -7.4674 C   0  0  0  0  0  0  0  0  0  0  0  0
  -29.4296   -2.3182   -6.3322 C   0  0  0  0  0  0  0  0  0  0  0  0
  -29.4817   -1.2812   -5.6756 O   0  0  0  0  0  0  0  0  0  0  0  0
  -30.2278   -3.4325   -6.0554 N   0  0  0  0  0  0  0  0  0  0  0  0
  -30.0945   -4.7427   -6.7169 C   0  0  0  0  0  0  0  0  0  0  0  0
  -29.2601   -4.8367   -8.0080 C   0  0  0  0  0  0  0  0  0  0  0  0
  -27.3386   -4.1242   -9.9363 H   0  0  0  0  0  0  0  0  0  0  0  0
  -26.0761   -1.6870  -10.0720 C   0  0  0  0  0  0  0  0  0  0  0  0
  -26.1453   -1.5994  -11.4064 C   0  0  0  0  0  0  0  0  0  0  0  0
  -27.2139   -1.9798  -12.3987 C   0  0  0  0  0  0  0  0  0  0  0  0
  -28.3001   -2.4781  -12.1769 O   0  0  0  0  0  0  0  0  0  0  0  0
  -26.6922   -1.6449  -13.6408 N   0  0  0  0  0  0  0  0  0  0  0  0
  -25.4155   -1.0963  -13.5284 C   0  0  0  0  0  0  0  0  0  0  0  0
  -24.6020   -0.6541  -14.5446 C   0  0  0  0  0  0  0  0  0  0  0  0
  -23.3504   -0.1281  -14.1925 C   0  0  0  0  0  0  0  0  0  0  0  0
  -22.9624   -0.0724  -12.8480 C   0  0  0  0  0  0  0  0  0  0  0  0
  -21.7631    0.4333  -12.5310 F   0  0  0  0  0  0  0  0  0  0  0  0
  -23.7939   -0.5258  -11.8299 C   0  0  0  0  0  0  0  0  0  0  0  0
  -25.0257   -1.0434  -12.1889 C   0  0  0  0  0  0  0  0  0  0  0  0
  -27.1944   -1.7892  -14.5040 H   0  0  0  0  0  0  0  0  0  0  0  0
  -31.0576   -3.3747   -4.8582 C   0  0  0  0  0  0  0  0  0  0  0  0
  -30.4527   -4.1016   -3.6396 C   0  0  0  0  0  0  0  0  0  0  0  0
  -29.7686   -5.3193   -4.0714 N   0  0  0  0  0  0  0  0  0  0  0  0
  -28.3230   -5.3334   -3.8471 C   0  0  0  0  0  0  0  0  0  0  0  0
  -28.0224   -6.7263   -4.3641 C   0  0  0  0  0  0  0  0  0  0  0  0
  -29.1356   -7.5600   -3.7416 C   0  0  0  0  0  0  0  0  0  0  0  0
  -30.2670   -6.5603   -3.4799 C   0  0  0  0  0  0  0  0  0  0  0  0
  1  2  1  0  0  0
  2  3  2  0  0  0
  2  6  1  0  0  0
  3 13  1  0  0  0
  3  4  1  0  0  0
 13 14  2  0  0  0
 14 15  1  0  0  0
 14 24  1  0  0  0
 15 16  2  0  0  0
 15 17  1  0  0  0
 17 18  1  0  0  0
 17 25  1  0  0  0
 18 19  1  0  0  0
 18 24  2  0  0  0
 19 20  2  0  0  0
 20 21  1  0  0  0
 21 22  1  0  0  0
 21 23  2  0  0  0
 23 24  1  0  0  0
  4  5  1  0  0  0
  4 12  1  0  0  0
  5  6  2  0  0  0
  5 11  1  0  0  0
  6  7  1  0  0  0
  7  8  2  0  0  0
  7  9  1  0  0  0
  9 26  1  0  0  0
  9 10  1  0  0  0
 26 27  1  0  0  0
 27 28  1  0  0  0
 28 29  1  0  0  0
 28 32  1  0  0  0
 29 30  1  0  0  0
 30 31  1  0  0  0
 31 32  1  0  0  0
 10 11  1  0  0  0
M  END
> <minimizedAffinity>
-8.46462

$$$$
