CHEMBL258046


 42 47  0  0  0  0  0  0  0  0999 V2000
  -28.4003   -8.6459   -6.4587 C   0  0  0  0  0  0  0  0  0  0  0  0
  -28.6353   -7.5906   -7.4345 C   0  0  0  0  0  0  0  0  0  0  0  0
  -28.4118   -8.1490   -8.6803 C   0  0  0  0  0  0  0  0  0  0  0  0
  -28.0254   -9.4466   -8.5227 N   0  0  0  0  0  0  0  0  0  0  0  0
  -27.6358  -10.2530   -9.5193 N   0  0  0  0  0  0  0  0  0  0  0  0
  -27.2852  -11.4362   -9.1290 C   0  0  0  0  0  0  0  0  0  0  0  0
  -27.3146  -11.9182   -7.8517 N   0  0  0  0  0  0  0  0  0  0  0  0
  -27.7162  -11.1534   -6.8733 C   0  0  0  0  0  0  0  0  0  0  0  0
  -28.0669   -9.7863   -7.2036 C   0  0  0  0  0  0  0  0  0  0  0  0
  -29.0376   -6.1365   -7.3041 C   0  0  0  0  0  0  0  0  0  0  0  0
  -30.1982   -5.6136   -7.6660 N   0  0  0  0  0  0  0  0  0  0  0  0
  -30.1383   -4.2437   -7.4190 N   0  0  0  0  0  0  0  0  0  0  0  0
  -28.9411   -4.0236   -6.9315 C   0  0  0  0  0  0  0  0  0  0  0  0
  -28.1919   -5.1562   -6.7989 O   0  0  0  0  0  0  0  0  0  0  0  0
  -28.3415   -2.8768   -6.6070 O   0  0  0  0  0  0  0  0  0  0  0  0
  -28.2460   -2.5693   -5.2040 C   0  0  0  0  0  0  0  0  0  0  0  0
  -29.5625   -2.0266   -4.6401 C   0  0  0  0  0  0  0  0  0  0  0  0
  -29.9668   -0.7227   -5.3277 C   0  0  0  0  0  0  0  0  0  0  0  0
  -28.9462    0.3219   -5.2835 N   0  0  0  0  0  0  0  0  0  0  0  0
  -27.5999   -0.1371   -5.6196 C   0  0  0  0  0  0  0  0  0  0  0  0
  -27.1951   -1.4686   -4.9812 C   0  0  0  0  0  0  0  0  0  0  0  0
  -28.9528    0.7950   -4.3821 H   0  0  0  0  0  0  0  0  0  0  0  0
  -27.1510   -8.2206   -4.2850 C   0  0  0  0  0  0  0  0  0  0  0  0
  -28.4733   -8.5866   -4.9475 C   0  0  0  0  0  0  0  0  0  0  0  0
  -29.6593   -7.7655   -4.4500 C   0  0  0  0  0  0  0  0  0  0  0  0
  -27.8076  -11.6715   -5.5983 N   0  0  0  0  0  0  0  0  0  0  0  0
  -28.5295  -12.3717   -5.4573 H   0  0  0  0  0  0  0  0  0  0  0  0
  -26.7767  -11.6969   -4.6359 C   0  0  0  0  0  0  0  0  0  0  0  0
  -25.4298  -11.5312   -4.9890 C   0  0  0  0  0  0  0  0  0  0  0  0
  -24.4080  -11.5577   -4.0228 C   0  0  0  0  0  0  0  0  0  0  0  0
  -24.7561  -11.7582   -2.6849 C   0  0  0  0  0  0  0  0  0  0  0  0
  -23.8196  -11.8002   -1.7246 F   0  0  0  0  0  0  0  0  0  0  0  0
  -26.0860  -11.9131   -2.3057 C   0  0  0  0  0  0  0  0  0  0  0  0
  -27.0795  -11.8736   -3.2797 C   0  0  0  0  0  0  0  0  0  0  0  0
  -28.3605  -12.0101   -2.9041 F   0  0  0  0  0  0  0  0  0  0  0  0
  -23.0033  -11.3560   -4.4788 C   0  0  0  0  0  0  0  0  0  0  0  0
  -22.1116  -11.1944   -3.6405 O   0  0  0  0  0  0  0  0  0  0  0  0
  -22.7574  -11.3879   -5.8335 N   0  0  0  0  0  0  0  0  0  0  0  0
  -23.5163  -11.5756   -6.4790 H   0  0  0  0  0  0  0  0  0  0  0  0
  -21.4408  -11.2273   -6.3687 C   0  0  0  0  0  0  0  0  0  0  0  0
  -21.1136  -10.0650   -7.2653 C   0  0  0  0  0  0  0  0  0  0  0  0
  -21.1797  -11.4524   -7.8321 C   0  0  0  0  0  0  0  0  0  0  0  0
 23 24  1  0  0  0
 24 25  1  0  0  0
 24  1  1  0  0  0
  1  2  1  0  0  0
  1  9  2  0  0  0
  2 10  1  0  0  0
  2  3  2  0  0  0
 10 11  2  0  0  0
 10 14  1  0  0  0
 11 12  1  0  0  0
 12 13  2  0  0  0
 13 15  1  0  0  0
 13 14  1  0  0  0
 15 16  1  0  0  0
 16 17  1  0  0  0
 16 21  1  0  0  0
 17 18  1  0  0  0
 18 19  1  0  0  0
 19 20  1  0  0  0
 19 22  1  0  0  0
 20 21  1  0  0  0
  3  4  1  0  0  0
  4  5  1  0  0  0
  4  9  1  0  0  0
  5  6  2  0  0  0
  6  7  1  0  0  0
  7  8  2  0  0  0
  8 26  1  0  0  0
  8  9  1  0  0  0
 26 28  1  0  0  0
 26 27  1  0  0  0
 28 29  1  0  0  0
 28 34  2  0  0  0
 29 30  2  0  0  0
 30 36  1  0  0  0
 30 31  1  0  0  0
 36 37  2  0  0  0
 36 38  1  0  0  0
 38 40  1  0  0  0
 38 39  1  0  0  0
 40 41  1  0  0  0
 40 42  1  0  0  0
 41 42  1  0  0  0
 31 32  1  0  0  0
 31 33  2  0  0  0
 33 34  1  0  0  0
 34 35  1  0  0  0
M  END
> <minimizedAffinity>
-7.97363

$$$$
