CHEMBL383616


 33 37  0  0  0  0  0  0  0  0999 V2000
  -28.0126   -2.6864   -8.0426 C   0  0  0  0  0  0  0  0  0  0  0  0
  -27.8283   -3.8936   -8.6126 N   0  0  0  0  0  0  0  0  0  0  0  0
  -28.1774   -5.0347   -7.9558 N   0  0  0  0  0  0  0  0  0  0  0  0
  -28.6061   -5.0037   -6.6748 C   0  0  0  0  0  0  0  0  0  0  0  0
  -28.8617   -3.7559   -6.0401 C   0  0  0  0  0  0  0  0  0  0  0  0
  -29.3126   -3.5973   -4.6975 C   0  0  0  0  0  0  0  0  0  0  0  0
  -29.6556   -2.3577   -4.1603 C   0  0  0  0  0  0  0  0  0  0  0  0
  -29.4978   -1.2151   -4.9236 C   0  0  0  0  0  0  0  0  0  0  0  0
  -28.9553   -1.3177   -6.2026 C   0  0  0  0  0  0  0  0  0  0  0  0
  -28.6281   -2.5697   -6.7817 C   0  0  0  0  0  0  0  0  0  0  0  0
  -28.7481   -6.3510   -6.0444 C   0  0  0  0  0  0  0  0  0  0  0  0
  -27.8755   -6.7174   -4.9939 C   0  0  0  0  0  0  0  0  0  0  0  0
  -27.8139   -8.0169   -4.5016 C   0  0  0  0  0  0  0  0  0  0  0  0
  -28.6976   -8.9722   -4.9780 C   0  0  0  0  0  0  0  0  0  0  0  0
  -29.6804   -8.6233   -5.9134 C   0  0  0  0  0  0  0  0  0  0  0  0
  -30.6342   -9.5654   -6.3122 C   0  0  0  0  0  0  0  0  0  0  0  0
  -31.6422   -9.3303   -7.1771 N   0  0  0  0  0  0  0  0  0  0  0  0
  -31.6965   -8.0919   -7.6907 C   0  0  0  0  0  0  0  0  0  0  0  0
  -30.7792   -7.0924   -7.3942 C   0  0  0  0  0  0  0  0  0  0  0  0
  -29.7312   -7.3187   -6.4649 C   0  0  0  0  0  0  0  0  0  0  0  0
  -27.5415   -1.5363   -8.7268 N   0  0  0  0  0  0  0  0  0  0  0  0
  -28.0720   -0.7228   -8.4394 H   0  0  0  0  0  0  0  0  0  0  0  0
  -25.2624   -1.6919  -11.6945 C   0  0  0  0  0  0  0  0  0  0  0  0
  -25.7328   -1.6396  -10.3608 C   0  0  0  0  0  0  0  0  0  0  0  0
  -27.0967   -1.5132  -10.0671 C   0  0  0  0  0  0  0  0  0  0  0  0
  -27.9977   -1.4949  -11.1370 C   0  0  0  0  0  0  0  0  0  0  0  0
  -27.5539   -1.5558  -12.4612 C   0  0  0  0  0  0  0  0  0  0  0  0
  -26.1918   -1.6492  -12.7388 C   0  0  0  0  0  0  0  0  0  0  0  0
  -25.7185   -1.7283  -14.3970 Cl  0  0  0  0  0  0  0  0  0  0  0  0
  -23.0418   -1.8955  -10.8270 F   0  0  0  0  0  0  0  0  0  0  0  0
  -23.7870   -1.7905  -11.9673 C   0  0  0  0  0  0  0  0  0  0  0  0
  -23.2897   -0.7047  -12.6206 F   0  0  0  0  0  0  0  0  0  0  0  0
  -23.4512   -2.8787  -12.7133 F   0  0  0  0  0  0  0  0  0  0  0  0
 30 31  1  0  0  0
 31 32  1  0  0  0
 31 33  1  0  0  0
 31 23  1  0  0  0
 23 24  1  0  0  0
 23 28  2  0  0  0
 24 25  2  0  0  0
 25 21  1  0  0  0
 25 26  1  0  0  0
 21  1  1  0  0  0
 21 22  1  0  0  0
  1  2  1  0  0  0
  1 10  2  0  0  0
  2  3  2  0  0  0
  3  4  1  0  0  0
  4 11  1  0  0  0
  4  5  2  0  0  0
 11 12  1  0  0  0
 11 20  2  0  0  0
 12 13  2  0  0  0
 13 14  1  0  0  0
 14 15  2  0  0  0
 15 16  1  0  0  0
 15 20  1  0  0  0
 16 17  2  0  0  0
 17 18  1  0  0  0
 18 19  2  0  0  0
 19 20  1  0  0  0
  5  6  1  0  0  0
  5 10  1  0  0  0
  6  7  2  0  0  0
  7  8  1  0  0  0
  8  9  2  0  0  0
  9 10  1  0  0  0
 26 27  2  0  0  0
 27 28  1  0  0  0
 28 29  1  0  0  0
M  END
> <minimizedAffinity>
-10.62047

$$$$
