CHEMBL3589742


 31 34  0  0  0  0  0  0  0  0999 V2000
  -27.9199   -2.6636   -8.6989 C   0  0  0  0  0  0  0  0  0  0  0  0
  -28.7386   -3.6565   -8.1901 C   0  0  0  0  0  0  0  0  0  0  0  0
  -29.5285   -3.4138   -7.0908 C   0  0  0  0  0  0  0  0  0  0  0  0
  -29.4037   -2.2535   -6.3261 C   0  0  0  0  0  0  0  0  0  0  0  0
  -28.5995   -1.2358   -6.8316 C   0  0  0  0  0  0  0  0  0  0  0  0
  -27.8632   -1.4365   -8.0219 C   0  0  0  0  0  0  0  0  0  0  0  0
  -30.1310   -2.1514   -5.1123 N   0  0  0  0  0  0  0  0  0  0  0  0
  -29.6134   -2.8366   -4.1230 C   0  0  0  0  0  0  0  0  0  0  0  0
  -28.1042   -2.9173   -3.7739 C   0  0  0  0  0  0  0  0  0  0  0  0
  -27.3263   -1.9877   -3.7625 O   0  0  0  0  0  0  0  0  0  0  0  0
  -27.8411   -4.2539   -3.5639 N   0  0  0  0  0  0  0  0  0  0  0  0
  -29.0018   -5.0078   -3.7224 C   0  0  0  0  0  0  0  0  0  0  0  0
  -29.0499   -6.3473   -4.0628 C   0  0  0  0  0  0  0  0  0  0  0  0
  -30.2798   -6.8542   -4.5027 C   0  0  0  0  0  0  0  0  0  0  0  0
  -31.4356   -6.0463   -4.5294 C   0  0  0  0  0  0  0  0  0  0  0  0
  -31.3707   -4.6934   -4.1880 C   0  0  0  0  0  0  0  0  0  0  0  0
  -30.1360   -4.1912   -3.8164 C   0  0  0  0  0  0  0  0  0  0  0  0
  -26.8997   -4.6138   -3.5224 H   0  0  0  0  0  0  0  0  0  0  0  0
  -25.7454   -1.0721   -9.6934 O   0  0  0  0  0  0  0  0  0  0  0  0
  -26.1766   -2.0263  -10.3329 C   0  0  0  0  0  0  0  0  0  0  0  0
  -25.7601   -2.3390  -11.6068 N   0  0  0  0  0  0  0  0  0  0  0  0
  -27.1669   -2.8927   -9.8737 N   0  0  0  0  0  0  0  0  0  0  0  0
  -26.3093   -3.0237  -12.1006 H   0  0  0  0  0  0  0  0  0  0  0  0
  -27.2222   -3.8109  -10.2859 H   0  0  0  0  0  0  0  0  0  0  0  0
  -24.8354   -1.5790  -12.3669 C   0  0  0  0  0  0  0  0  0  0  0  0
  -25.0064   -1.2677  -13.7249 C   0  0  0  0  0  0  0  0  0  0  0  0
  -24.0143   -0.5886  -14.4443 C   0  0  0  0  0  0  0  0  0  0  0  0
  -22.8493   -0.1917  -13.8008 C   0  0  0  0  0  0  0  0  0  0  0  0
  -21.6105    0.5978  -14.6837 Cl  0  0  0  0  0  0  0  0  0  0  0  0
  -22.6766   -0.4654  -12.4421 C   0  0  0  0  0  0  0  0  0  0  0  0
  -23.6687   -1.1494  -11.7271 C   0  0  0  0  0  0  0  0  0  0  0  0
 19 20  2  0  0  0
 20 21  1  0  0  0
 20 22  1  0  0  0
 21 25  1  0  0  0
 21 23  1  0  0  0
 25 26  1  0  0  0
 25 31  2  0  0  0
 26 27  2  0  0  0
 27 28  1  0  0  0
 28 29  1  0  0  0
 28 30  2  0  0  0
 30 31  1  0  0  0
 22  1  1  0  0  0
 22 24  1  0  0  0
  1  2  1  0  0  0
  1  6  2  0  0  0
  2  3  2  0  0  0
  3  4  1  0  0  0
  4  7  1  0  0  0
  4  5  2  0  0  0
  7  8  2  0  0  0
  8  9  1  0  0  0
  8 17  1  0  0  0
  9 10  2  0  0  0
  9 11  1  0  0  0
 11 12  1  0  0  0
 11 18  1  0  0  0
 12 13  1  0  0  0
 12 17  2  0  0  0
 13 14  2  0  0  0
 14 15  1  0  0  0
 15 16  2  0  0  0
 16 17  1  0  0  0
  5  6  1  0  0  0
M  END
> <minimizedAffinity>
-10.53535

$$$$
