CHEMBL74197


 27 30  0  0  0  0  0  0  0  0999 V2000
  -15.2647   -0.2901  -13.3862 C   0  0  0  0  0  0  0  0  0  0  0  0
  -16.3096    0.3441  -12.8106 N   0  0  0  0  0  0  0  0  0  0  0  0
  -17.0420    1.2521  -13.5013 N   0  0  0  0  0  0  0  0  0  0  0  0
  -16.6976    1.5785  -14.7665 C   0  0  0  0  0  0  0  0  0  0  0  0
  -15.5997    0.9812  -15.4163 C   0  0  0  0  0  0  0  0  0  0  0  0
  -15.1403    1.3527  -16.7045 C   0  0  0  0  0  0  0  0  0  0  0  0
  -14.0697    0.7008  -17.3186 C   0  0  0  0  0  0  0  0  0  0  0  0
  -13.4454   -0.3555  -16.6730 C   0  0  0  0  0  0  0  0  0  0  0  0
  -13.8502   -0.7133  -15.3875 C   0  0  0  0  0  0  0  0  0  0  0  0
  -14.9048   -0.0370  -14.7246 C   0  0  0  0  0  0  0  0  0  0  0  0
  -14.4890   -1.1742  -12.5959 N   0  0  0  0  0  0  0  0  0  0  0  0
  -13.5118   -1.1233  -12.8552 H   0  0  0  0  0  0  0  0  0  0  0  0
  -14.1386   -4.8570   -9.2992 C   0  0  0  0  0  0  0  0  0  0  0  0
  -14.7437   -4.2951  -10.5503 C   0  0  0  0  0  0  0  0  0  0  0  0
  -15.6388   -5.0354  -11.3263 C   0  0  0  0  0  0  0  0  0  0  0  0
  -16.1631   -4.5070  -12.5118 C   0  0  0  0  0  0  0  0  0  0  0  0
  -17.1215   -5.2985  -13.3468 C   0  0  0  0  0  0  0  0  0  0  0  0
  -15.7846   -3.2165  -12.9173 C   0  0  0  0  0  0  0  0  0  0  0  0
  -14.9154   -2.4402  -12.1422 C   0  0  0  0  0  0  0  0  0  0  0  0
  -14.3890   -3.0076  -10.9702 C   0  0  0  0  0  0  0  0  0  0  0  0
  -17.6582    2.5312  -15.4381 C   0  0  0  0  0  0  0  0  0  0  0  0
  -19.1000    2.2686  -15.0611 C   0  0  0  0  0  0  0  0  0  0  0  0
  -19.9152    3.3057  -14.5895 C   0  0  0  0  0  0  0  0  0  0  0  0
  -21.2138    3.0124  -14.2042 C   0  0  0  0  0  0  0  0  0  0  0  0
  -21.7535    1.7775  -14.2711 N   0  0  0  0  0  0  0  0  0  0  0  0
  -20.9606    0.7956  -14.7477 C   0  0  0  0  0  0  0  0  0  0  0  0
  -19.6487    0.9876  -15.1539 C   0  0  0  0  0  0  0  0  0  0  0  0
 13 14  1  0  0  0
 14 15  1  0  0  0
 14 20  2  0  0  0
 15 16  2  0  0  0
 16 17  1  0  0  0
 16 18  1  0  0  0
 18 19  2  0  0  0
 19 11  1  0  0  0
 19 20  1  0  0  0
 11  1  1  0  0  0
 11 12  1  0  0  0
  1  2  1  0  0  0
  1 10  2  0  0  0
  2  3  2  0  0  0
  3  4  1  0  0  0
  4 21  1  0  0  0
  4  5  2  0  0  0
 21 22  1  0  0  0
 22 23  1  0  0  0
 22 27  2  0  0  0
 23 24  2  0  0  0
 24 25  1  0  0  0
 25 26  2  0  0  0
 26 27  1  0  0  0
  5  6  1  0  0  0
  5 10  1  0  0  0
  6  7  2  0  0  0
  7  8  1  0  0  0
  8  9  2  0  0  0
  9 10  1  0  0  0
M  END
> <minimizedAffinity>
-8.28855

$$$$
