CHEMBL3985750


 39 43  0  0  0  0  0  0  0  0999 V2000
  -27.2688   -1.5092   -9.7306 C   0  0  0  0  0  0  0  0  0  0  0  0
  -28.1142   -1.6009  -10.8426 C   0  0  0  0  0  0  0  0  0  0  0  0
  -27.5756   -1.6297  -12.1104 C   0  0  0  0  0  0  0  0  0  0  0  0
  -26.2463   -1.3635  -12.3387 C   0  0  0  0  0  0  0  0  0  0  0  0
  -25.8681   -1.6044  -13.5950 N   0  0  0  0  0  0  0  0  0  0  0  0
  -24.6623   -1.1551  -13.9524 C   0  0  0  0  0  0  0  0  0  0  0  0
  -23.8776   -0.3974  -13.1085 C   0  0  0  0  0  0  0  0  0  0  0  0
  -24.1879   -0.2978  -11.7622 N   0  0  0  0  0  0  0  0  0  0  0  0
  -25.4062   -0.8542  -11.3237 C   0  0  0  0  0  0  0  0  0  0  0  0
  -25.9493   -1.0217   -9.9758 C   0  0  0  0  0  0  0  0  0  0  0  0
  -22.8917    0.4505  -13.7964 C   0  0  0  0  0  0  0  0  0  0  0  0
  -22.7387    1.8477  -13.9286 C   0  0  0  0  0  0  0  0  0  0  0  0
  -21.5562    2.2056  -14.4572 N   0  0  0  0  0  0  0  0  0  0  0  0
  -20.9073    1.0325  -14.6523 N   0  0  0  0  0  0  0  0  0  0  0  0
  -21.6433   -0.0299  -14.1940 C   0  0  0  0  0  0  0  0  0  0  0  0
  -19.7194    1.0165  -15.5119 C   0  0  0  0  0  0  0  0  0  0  0  0
  -18.3901    1.4057  -14.8730 C   0  0  0  0  0  0  0  0  0  0  0  0
  -18.1917    2.4379  -14.2541 O   0  0  0  0  0  0  0  0  0  0  0  0
  -17.4051    0.4175  -14.9917 N   0  0  0  0  0  0  0  0  0  0  0  0
  -17.5305   -0.3351  -15.6592 H   0  0  0  0  0  0  0  0  0  0  0  0
  -16.0458    0.6141  -14.4789 C   0  0  0  0  0  0  0  0  0  0  0  0
  -15.8879    0.2250  -13.0071 C   0  0  0  0  0  0  0  0  0  0  0  0
  -14.5780    0.5568  -12.5497 O   0  0  0  0  0  0  0  0  0  0  0  0
  -13.9659   -0.0078  -13.0522 H   0  0  0  0  0  0  0  0  0  0  0  0
  -27.7717   -2.1401   -8.5397 N   0  0  0  0  0  0  0  0  0  0  0  0
  -28.7793    0.0078   -5.6165 C   0  0  0  0  0  0  0  0  0  0  0  0
  -28.5630   -0.8515   -4.5547 C   0  0  0  0  0  0  0  0  0  0  0  0
  -27.9215   -2.0708   -4.7834 C   0  0  0  0  0  0  0  0  0  0  0  0
  -27.6299   -2.4895   -6.0982 C   0  0  0  0  0  0  0  0  0  0  0  0
  -27.9317   -1.6884   -7.2044 C   0  0  0  0  0  0  0  0  0  0  0  0
  -28.3870   -0.3830   -6.8994 C   0  0  0  0  0  0  0  0  0  0  0  0
  -30.7357    1.3027   -5.9167 C   0  0  0  0  0  0  0  0  0  0  0  0
  -29.3647    1.2435   -5.5293 O   0  0  0  0  0  0  0  0  0  0  0  0
  -27.5794   -2.9532   -3.7901 O   0  0  0  0  0  0  0  0  0  0  0  0
  -28.0904   -4.2770   -3.9363 C   0  0  0  0  0  0  0  0  0  0  0  0
  -27.9926   -3.6068   -8.7884 C   0  0  0  0  0  0  0  0  0  0  0  0
  -28.7068   -4.2633   -7.6328 C   0  0  0  0  0  0  0  0  0  0  0  0
  -29.0248   -5.7402   -7.7121 C   0  0  0  0  0  0  0  0  0  0  0  0
  -30.1388   -4.7373   -7.7415 C   0  0  0  0  0  0  0  0  0  0  0  0
 32 33  1  0  0  0
 33 26  1  0  0  0
 26 27  1  0  0  0
 26 31  2  0  0  0
 27 28  2  0  0  0
 28 34  1  0  0  0
 28 29  1  0  0  0
 34 35  1  0  0  0
 29 30  2  0  0  0
 30 25  1  0  0  0
 30 31  1  0  0  0
 25 36  1  0  0  0
 25  1  1  0  0  0
 36 37  1  0  0  0
 37 38  1  0  0  0
 37 39  1  0  0  0
 38 39  1  0  0  0
  1  2  1  0  0  0
  1 10  2  0  0  0
  2  3  2  0  0  0
  3  4  1  0  0  0
  4  5  1  0  0  0
  4  9  2  0  0  0
  5  6  2  0  0  0
  6  7  1  0  0  0
  7 11  1  0  0  0
  7  8  2  0  0  0
 11 12  1  0  0  0
 11 15  2  0  0  0
 12 13  2  0  0  0
 13 14  1  0  0  0
 14 16  1  0  0  0
 14 15  1  0  0  0
 16 17  1  0  0  0
 17 18  2  0  0  0
 17 19  1  0  0  0
 19 21  1  0  0  0
 19 20  1  0  0  0
 21 22  1  0  0  0
 22 23  1  0  0  0
 23 24  1  0  0  0
  8  9  1  0  0  0
  9 10  1  0  0  0
M  END
> <minimizedAffinity>
-8.89376

$$$$
