CHEMBL402792


 38 42  0  0  0  0  0  0  0  0999 V2000
  -15.1424   -5.7282  -12.0977 C   0  0  0  0  0  0  0  0  0  0  0  0
  -13.9518   -5.0616  -11.8014 C   0  0  0  0  0  0  0  0  0  0  0  0
  -13.8471   -3.6888  -12.0172 C   0  0  0  0  0  0  0  0  0  0  0  0
  -14.9499   -2.9534  -12.4538 C   0  0  0  0  0  0  0  0  0  0  0  0
  -16.1812   -3.5943  -12.6078 C   0  0  0  0  0  0  0  0  0  0  0  0
  -16.2639   -4.9772  -12.4487 C   0  0  0  0  0  0  0  0  0  0  0  0
  -17.4423   -5.5838  -12.6543 F   0  0  0  0  0  0  0  0  0  0  0  0
  -14.8882   -1.5627  -12.6358 N   0  0  0  0  0  0  0  0  0  0  0  0
  -15.2832   -1.0012  -11.8818 H   0  0  0  0  0  0  0  0  0  0  0  0
  -14.3259   -0.8379  -13.6615 C   0  0  0  0  0  0  0  0  0  0  0  0
  -12.6966   -0.6618  -14.0117 S   0  0  0  0  0  0  0  0  0  0  0  0
  -15.2224   -0.2302  -14.5139 N   0  0  0  0  0  0  0  0  0  0  0  0
  -16.2429    0.6550  -14.1917 C   0  0  0  0  0  0  0  0  0  0  0  0
  -16.5336    0.9702  -13.0417 O   0  0  0  0  0  0  0  0  0  0  0  0
  -15.0421   -0.4156  -15.4947 H   0  0  0  0  0  0  0  0  0  0  0  0
  -17.0301    1.1549  -15.3879 C   0  0  0  0  0  0  0  0  0  0  0  0
  -18.4474    1.5764  -15.0841 C   0  0  0  0  0  0  0  0  0  0  0  0
  -18.7536    2.9290  -14.8760 C   0  0  0  0  0  0  0  0  0  0  0  0
  -20.0757    3.3396  -14.6935 C   0  0  0  0  0  0  0  0  0  0  0  0
  -21.1073    2.4033  -14.7170 C   0  0  0  0  0  0  0  0  0  0  0  0
  -20.8172    1.0552  -14.9158 C   0  0  0  0  0  0  0  0  0  0  0  0
  -19.4947    0.6425  -15.0990 C   0  0  0  0  0  0  0  0  0  0  0  0
  -15.2815   -7.0981  -12.0462 O   0  0  0  0  0  0  0  0  0  0  0  0
  -13.6995   -7.4653  -16.3881 C   0  0  0  0  0  0  0  0  0  0  0  0
  -12.9064   -8.4851  -15.9106 C   0  0  0  0  0  0  0  0  0  0  0  0
  -13.0306   -8.6558  -14.5013 C   0  0  0  0  0  0  0  0  0  0  0  0
  -12.3313   -9.5629  -13.7668 N   0  0  0  0  0  0  0  0  0  0  0  0
  -12.5712   -9.5518  -12.4444 C   0  0  0  0  0  0  0  0  0  0  0  0
  -13.4858   -8.7359  -11.8098 C   0  0  0  0  0  0  0  0  0  0  0  0
  -14.2702   -7.8740  -12.5795 C   0  0  0  0  0  0  0  0  0  0  0  0
  -13.9772   -7.7941  -13.9485 C   0  0  0  0  0  0  0  0  0  0  0  0
  -14.6300   -6.7526  -15.1489 S   0  0  0  0  0  0  0  0  0  0  0  0
  -14.0642   -4.7247  -20.5542 C   0  0  0  0  0  0  0  0  0  0  0  0
  -13.9015   -5.8137  -19.6228 N   0  0  0  0  0  0  0  0  0  0  0  0
  -13.8984   -5.7339  -18.2599 C   0  0  0  0  0  0  0  0  0  0  0  0
  -13.7480   -7.0250  -17.8078 C   0  0  0  0  0  0  0  0  0  0  0  0
  -13.6605   -7.8053  -18.9791 C   0  0  0  0  0  0  0  0  0  0  0  0
  -13.7563   -7.0675  -20.0894 N   0  0  0  0  0  0  0  0  0  0  0  0
 33 34  1  0  0  0
 34 35  1  0  0  0
 34 38  1  0  0  0
 35 36  2  0  0  0
 36 24  1  0  0  0
 36 37  1  0  0  0
 24 25  2  0  0  0
 24 32  1  0  0  0
 25 26  1  0  0  0
 26 27  1  0  0  0
 26 31  2  0  0  0
 27 28  2  0  0  0
 28 29  1  0  0  0
 29 30  2  0  0  0
 30 23  1  0  0  0
 30 31  1  0  0  0
 23  1  1  0  0  0
  1  2  1  0  0  0
  1  6  2  0  0  0
  2  3  2  0  0  0
  3  4  1  0  0  0
  4  8  1  0  0  0
  4  5  2  0  0  0
  8 10  1  0  0  0
  8  9  1  0  0  0
 10 11  2  0  0  0
 10 12  1  0  0  0
 12 13  1  0  0  0
 12 15  1  0  0  0
 13 14  2  0  0  0
 13 16  1  0  0  0
 16 17  1  0  0  0
 17 18  1  0  0  0
 17 22  2  0  0  0
 18 19  2  0  0  0
 19 20  1  0  0  0
 20 21  2  0  0  0
 21 22  1  0  0  0
  5  6  1  0  0  0
  6  7  1  0  0  0
 31 32  1  0  0  0
 37 38  2  0  0  0
M  END
> <minimizedAffinity>
-9.63908

$$$$
