CHEMBL4593348


 25 26  0  0  0  0  0  0  0  0999 V2000
  -16.5927    1.0603  -15.1412 C   0  0  0  0  0  0  0  0  0  0  0  0
  -15.5812    1.8919  -15.6732 C   0  0  0  0  0  0  0  0  0  0  0  0
  -15.9131    3.1962  -16.0096 C   0  0  0  0  0  0  0  0  0  0  0  0
  -17.1454    3.7307  -15.9037 N   0  0  0  0  0  0  0  0  0  0  0  0
  -18.1364    2.9328  -15.5069 C   0  0  0  0  0  0  0  0  0  0  0  0
  -19.4117    3.4750  -15.5067 C   0  0  0  0  0  0  0  0  0  0  0  0
  -20.5375    2.7382  -15.1398 C   0  0  0  0  0  0  0  0  0  0  0  0
  -20.3844    1.4181  -14.7397 C   0  0  0  0  0  0  0  0  0  0  0  0
  -19.1013    0.8532  -14.7207 C   0  0  0  0  0  0  0  0  0  0  0  0
  -17.9391    1.5844  -15.1103 C   0  0  0  0  0  0  0  0  0  0  0  0
  -14.2000    1.4672  -16.0270 C   0  0  0  0  0  0  0  0  0  0  0  0
  -13.2923    2.4584  -16.3016 N   0  0  0  0  0  0  0  0  0  0  0  0
  -13.8574    0.2947  -16.0911 O   0  0  0  0  0  0  0  0  0  0  0  0
  -13.4710    3.4469  -16.2023 H   0  0  0  0  0  0  0  0  0  0  0  0
  -12.3479    2.1638  -16.5203 H   0  0  0  0  0  0  0  0  0  0  0  0
  -16.3912   -0.2574  -14.7015 N   0  0  0  0  0  0  0  0  0  0  0  0
  -17.0384   -0.9366  -15.0713 H   0  0  0  0  0  0  0  0  0  0  0  0
  -15.9326   -0.5952  -13.3553 C   0  0  0  0  0  0  0  0  0  0  0  0
  -15.6869   -2.1128  -13.2127 C   0  0  0  0  0  0  0  0  0  0  0  0
  -13.1366   -2.3885  -13.1700 C   0  0  0  0  0  0  0  0  0  0  0  0
  -14.4182   -2.5596  -13.9721 C   0  0  0  0  0  0  0  0  0  0  0  0
  -15.6900   -2.5052  -11.7170 C   0  0  0  0  0  0  0  0  0  0  0  0
  -16.3197   -3.8572  -11.4057 C   0  0  0  0  0  0  0  0  0  0  0  0
  -21.5276    0.6385  -14.3589 C   0  0  0  0  0  0  0  0  0  0  0  0
  -22.4495    0.0037  -14.0522 N   0  0  0  0  0  0  0  0  0  0  0  0
 20 21  1  0  0  0
 21 19  1  0  0  0
 19 22  1  0  0  0
 19 18  1  0  0  0
 22 23  1  0  0  0
 18 16  1  0  0  0
 16  1  1  0  0  0
 16 17  1  0  0  0
  1  2  1  0  0  0
  1 10  2  0  0  0
  2 11  1  0  0  0
  2  3  2  0  0  0
 11 12  1  0  0  0
 11 13  2  0  0  0
 12 14  1  0  0  0
 12 15  1  0  0  0
  3  4  1  0  0  0
  4  5  2  0  0  0
  5  6  1  0  0  0
  5 10  1  0  0  0
  6  7  2  0  0  0
  7  8  1  0  0  0
  8 24  1  0  0  0
  8  9  2  0  0  0
 24 25  3  0  0  0
  9 10  1  0  0  0
M  END
> <minimizedAffinity>
-6.99720

$$$$
