CHEMBL193346


 29 32  0  0  0  0  0  0  0  0999 V2000
  -17.8088    2.3385  -15.2650 C   0  0  0  0  0  0  0  0  0  0  0  0
  -17.7169    3.3073  -16.2039 N   0  0  0  0  0  0  0  0  0  0  0  0
  -16.4921    3.7350  -16.6685 N   0  0  0  0  0  0  0  0  0  0  0  0
  -15.3467    3.1617  -16.2519 C   0  0  0  0  0  0  0  0  0  0  0  0
  -15.3869    2.0949  -15.3203 C   0  0  0  0  0  0  0  0  0  0  0  0
  -14.2347    1.3626  -14.9278 C   0  0  0  0  0  0  0  0  0  0  0  0
  -14.2738    0.4026  -13.9188 C   0  0  0  0  0  0  0  0  0  0  0  0
  -15.4548    0.1837  -13.2357 C   0  0  0  0  0  0  0  0  0  0  0  0
  -16.6067    0.8642  -13.6257 C   0  0  0  0  0  0  0  0  0  0  0  0
  -16.6323    1.7573  -14.7305 C   0  0  0  0  0  0  0  0  0  0  0  0
  -21.8595    1.1800  -14.1657 C   0  0  0  0  0  0  0  0  0  0  0  0
  -21.0124    0.2702  -14.7978 C   0  0  0  0  0  0  0  0  0  0  0  0
  -19.7308    0.6627  -15.2079 C   0  0  0  0  0  0  0  0  0  0  0  0
  -19.2115    1.9426  -14.9298 C   0  0  0  0  0  0  0  0  0  0  0  0
  -20.1095    2.8604  -14.3480 C   0  0  0  0  0  0  0  0  0  0  0  0
  -21.4147    2.4922  -13.9774 C   0  0  0  0  0  0  0  0  0  0  0  0
  -23.1978    0.7036  -13.7191 C   0  0  0  0  0  0  0  0  0  0  0  0
  -23.8105    1.1966  -12.7822 O   0  0  0  0  0  0  0  0  0  0  0  0
  -24.5762   -1.1790  -13.8880 C   0  0  0  0  0  0  0  0  0  0  0  0
  -23.6328   -0.3050  -14.5109 O   0  0  0  0  0  0  0  0  0  0  0  0
  -14.0885    3.6049  -16.7685 N   0  0  0  0  0  0  0  0  0  0  0  0
  -13.3937    2.9032  -16.5227 H   0  0  0  0  0  0  0  0  0  0  0  0
  -13.4697    4.8524  -16.4783 C   0  0  0  0  0  0  0  0  0  0  0  0
  -12.8728    5.1268  -15.2406 C   0  0  0  0  0  0  0  0  0  0  0  0
  -12.1481    6.3068  -15.0411 C   0  0  0  0  0  0  0  0  0  0  0  0
  -11.9948    7.2112  -16.0881 C   0  0  0  0  0  0  0  0  0  0  0  0
  -11.1146    8.6684  -15.8398 Cl  0  0  0  0  0  0  0  0  0  0  0  0
  -12.5400    6.9346  -17.3388 C   0  0  0  0  0  0  0  0  0  0  0  0
  -13.2590    5.7510  -17.5351 C   0  0  0  0  0  0  0  0  0  0  0  0
 19 20  1  0  0  0
 20 17  1  0  0  0
 17 18  2  0  0  0
 17 11  1  0  0  0
 11 12  1  0  0  0
 11 16  2  0  0  0
 12 13  2  0  0  0
 13 14  1  0  0  0
 14  1  1  0  0  0
 14 15  2  0  0  0
  1  2  1  0  0  0
  1 10  2  0  0  0
  2  3  2  0  0  0
  3  4  1  0  0  0
  4 21  1  0  0  0
  4  5  2  0  0  0
 21 23  1  0  0  0
 21 22  1  0  0  0
 23 24  1  0  0  0
 23 29  2  0  0  0
 24 25  2  0  0  0
 25 26  1  0  0  0
 26 27  1  0  0  0
 26 28  2  0  0  0
 28 29  1  0  0  0
  5  6  1  0  0  0
  5 10  1  0  0  0
  6  7  2  0  0  0
  7  8  1  0  0  0
  8  9  2  0  0  0
  9 10  1  0  0  0
 15 16  1  0  0  0
M  END
> <minimizedAffinity>
-8.39111

$$$$
