CHEMBL2023232


 41 45  0  0  0  0  0  0  0  0999 V2000
  -22.5428   -0.0968  -13.7959 C   0  0  0  0  0  0  0  0  0  0  0  0
  -22.7281   -0.0902  -12.4186 C   0  0  0  0  0  0  0  0  0  0  0  0
  -23.9095   -0.5609  -11.8562 C   0  0  0  0  0  0  0  0  0  0  0  0
  -25.0012   -0.9088  -12.6532 C   0  0  0  0  0  0  0  0  0  0  0  0
  -24.8590   -0.8552  -14.0388 C   0  0  0  0  0  0  0  0  0  0  0  0
  -23.6333   -0.4663  -14.6042 C   0  0  0  0  0  0  0  0  0  0  0  0
  -18.6283    2.6890  -15.4765 C   0  0  0  0  0  0  0  0  0  0  0  0
  -19.2205    3.8970  -15.1596 C   0  0  0  0  0  0  0  0  0  0  0  0
  -20.4225    4.0339  -14.5822 N   0  0  0  0  0  0  0  0  0  0  0  0
  -21.1442    2.9431  -14.2625 C   0  0  0  0  0  0  0  0  0  0  0  0
  -22.3362    3.2549  -13.6264 N   0  0  0  0  0  0  0  0  0  0  0  0
  -20.6633    1.6308  -14.5649 C   0  0  0  0  0  0  0  0  0  0  0  0
  -21.2435    0.2881  -14.3617 C   0  0  0  0  0  0  0  0  0  0  0  0
  -20.4086   -0.7043  -14.8298 C   0  0  0  0  0  0  0  0  0  0  0  0
  -18.9807   -0.1104  -15.5013 S   0  0  0  0  0  0  0  0  0  0  0  0
  -19.3940    1.5374  -15.1777 C   0  0  0  0  0  0  0  0  0  0  0  0
  -22.3477    4.2411  -13.3902 H   0  0  0  0  0  0  0  0  0  0  0  0
  -22.5964    2.6241  -12.8813 H   0  0  0  0  0  0  0  0  0  0  0  0
  -14.4335    4.0075  -17.7600 C   0  0  0  0  0  0  0  0  0  0  0  0
  -15.4577    3.2492  -17.0850 N   0  0  0  0  0  0  0  0  0  0  0  0
  -16.6565    3.7134  -16.6276 C   0  0  0  0  0  0  0  0  0  0  0  0
  -17.3144    2.6286  -16.0811 C   0  0  0  0  0  0  0  0  0  0  0  0
  -16.3921    1.5716  -16.2328 C   0  0  0  0  0  0  0  0  0  0  0  0
  -15.2665    1.9415  -16.8427 N   0  0  0  0  0  0  0  0  0  0  0  0
  -26.2362   -1.3103  -12.0942 N   0  0  0  0  0  0  0  0  0  0  0  0
  -26.4274   -1.4902  -10.7425 C   0  0  0  0  0  0  0  0  0  0  0  0
  -25.6068   -1.1975   -9.8767 O   0  0  0  0  0  0  0  0  0  0  0  0
  -27.6512   -2.0814  -10.4519 N   0  0  0  0  0  0  0  0  0  0  0  0
  -27.0681   -1.1852  -12.6510 H   0  0  0  0  0  0  0  0  0  0  0  0
  -27.9451   -2.7607  -11.1418 H   0  0  0  0  0  0  0  0  0  0  0  0
  -27.9324   -2.3910   -9.0979 C   0  0  0  0  0  0  0  0  0  0  0  0
  -28.3123   -3.6862   -8.7310 C   0  0  0  0  0  0  0  0  0  0  0  0
  -28.7842   -3.9505   -7.4412 C   0  0  0  0  0  0  0  0  0  0  0  0
  -28.8309   -2.9266   -6.5037 C   0  0  0  0  0  0  0  0  0  0  0  0
  -28.4270   -1.6367   -6.8731 C   0  0  0  0  0  0  0  0  0  0  0  0
  -27.9464   -1.3699   -8.1595 C   0  0  0  0  0  0  0  0  0  0  0  0
  -29.2874   -3.0230   -5.2270 O   0  0  0  0  0  0  0  0  0  0  0  0
  -28.5291   -3.7377   -4.2643 C   0  0  0  0  0  0  0  0  0  0  0  0
  -27.1961   -3.6941   -4.4700 F   0  0  0  0  0  0  0  0  0  0  0  0
  -28.7703   -3.1873   -3.0528 F   0  0  0  0  0  0  0  0  0  0  0  0
  -28.9305   -5.0252   -4.2282 F   0  0  0  0  0  0  0  0  0  0  0  0
 19 20  1  0  0  0
 20 21  1  0  0  0
 20 24  1  0  0  0
 21 22  2  0  0  0
 22  7  1  0  0  0
 22 23  1  0  0  0
  7  8  1  0  0  0
  7 16  2  0  0  0
  8  9  2  0  0  0
  9 10  1  0  0  0
 10 11  1  0  0  0
 10 12  2  0  0  0
 11 17  1  0  0  0
 11 18  1  0  0  0
 12 13  1  0  0  0
 12 16  1  0  0  0
 13  1  1  0  0  0
 13 14  2  0  0  0
  1  2  1  0  0  0
  1  6  2  0  0  0
  2  3  2  0  0  0
  3  4  1  0  0  0
  4 25  1  0  0  0
  4  5  2  0  0  0
 25 26  1  0  0  0
 25 29  1  0  0  0
 26 27  2  0  0  0
 26 28  1  0  0  0
 28 31  1  0  0  0
 28 30  1  0  0  0
 31 32  1  0  0  0
 31 36  2  0  0  0
 32 33  2  0  0  0
 33 34  1  0  0  0
 34 37  1  0  0  0
 34 35  2  0  0  0
 37 38  1  0  0  0
 38 39  1  0  0  0
 38 40  1  0  0  0
 38 41  1  0  0  0
 35 36  1  0  0  0
  5  6  1  0  0  0
 14 15  1  0  0  0
 15 16  1  0  0  0
 23 24  2  0  0  0
M  END
> <minimizedAffinity>
-9.50448

$$$$
