CHEMBL3962355


 41 46  0  0  0  0  0  0  0  0999 V2000
  -17.7003    1.1909  -15.1167 C   0  0  0  0  0  0  0  0  0  0  0  0
  -18.9863    0.7057  -14.8435 C   0  0  0  0  0  0  0  0  0  0  0  0
  -20.0852    1.5784  -14.6582 C   0  0  0  0  0  0  0  0  0  0  0  0
  -21.3896    1.1977  -14.3142 C   0  0  0  0  0  0  0  0  0  0  0  0
  -22.3899    2.0943  -14.2001 N   0  0  0  0  0  0  0  0  0  0  0  0
  -22.0884    3.3746  -14.4120 C   0  0  0  0  0  0  0  0  0  0  0  0
  -20.8805    3.8477  -14.7206 N   0  0  0  0  0  0  0  0  0  0  0  0
  -19.9032    2.9484  -14.8391 C   0  0  0  0  0  0  0  0  0  0  0  0
  -18.6393    3.4098  -15.1462 C   0  0  0  0  0  0  0  0  0  0  0  0
  -17.5137    2.5705  -15.2403 C   0  0  0  0  0  0  0  0  0  0  0  0
  -16.0259   -0.2330  -14.1590 C   0  0  0  0  0  0  0  0  0  0  0  0
  -16.7858    0.1908  -15.2803 O   0  0  0  0  0  0  0  0  0  0  0  0
  -21.6759   -0.1697  -14.0588 N   0  0  0  0  0  0  0  0  0  0  0  0
  -20.8348   -0.6317  -13.7253 H   0  0  0  0  0  0  0  0  0  0  0  0
  -22.8498   -0.6069  -13.4126 C   0  0  0  0  0  0  0  0  0  0  0  0
  -22.8370   -0.8700  -12.0360 C   0  0  0  0  0  0  0  0  0  0  0  0
  -23.9661   -1.3735  -11.3930 C   0  0  0  0  0  0  0  0  0  0  0  0
  -25.1336   -1.6154  -12.1218 C   0  0  0  0  0  0  0  0  0  0  0  0
  -26.4782   -2.2821  -11.2729 Cl  0  0  0  0  0  0  0  0  0  0  0  0
  -25.1643   -1.3311  -13.4897 C   0  0  0  0  0  0  0  0  0  0  0  0
  -26.5739   -1.6036  -14.4527 Cl  0  0  0  0  0  0  0  0  0  0  0  0
  -24.0301   -0.8190  -14.1317 C   0  0  0  0  0  0  0  0  0  0  0  0
  -16.2548    3.0813  -15.4638 O   0  0  0  0  0  0  0  0  0  0  0  0
  -16.2383    4.2638  -16.2826 C   0  0  0  0  0  0  0  0  0  0  0  0
  -14.9089    4.4380  -17.0033 C   0  0  0  0  0  0  0  0  0  0  0  0
  -15.1569    4.4321  -18.5240 C   0  0  0  0  0  0  0  0  0  0  0  0
  -13.8937    4.7578  -19.1746 N   0  0  0  0  0  0  0  0  0  0  0  0
  -13.5360    5.9529  -19.7988 C   0  0  0  0  0  0  0  0  0  0  0  0
  -12.4180    6.1135  -20.2874 O   0  0  0  0  0  0  0  0  0  0  0  0
  -12.8652    3.7554  -18.8692 C   0  0  0  0  0  0  0  0  0  0  0  0
  -12.7240    3.5840  -17.3425 C   0  0  0  0  0  0  0  0  0  0  0  0
  -13.9964    3.3658  -16.6924 O   0  0  0  0  0  0  0  0  0  0  0  0
  -14.5011    7.0941  -19.9288 C   0  0  0  0  0  0  0  0  0  0  0  0
  -14.4112    8.2745  -19.1584 C   0  0  0  0  0  0  0  0  0  0  0  0
  -15.3654    9.2912  -19.2630 C   0  0  0  0  0  0  0  0  0  0  0  0
  -16.3396    9.1497  -20.2207 C   0  0  0  0  0  0  0  0  0  0  0  0
  -16.3874    8.0512  -21.0453 C   0  0  0  0  0  0  0  0  0  0  0  0
  -15.4926    7.0053  -20.9209 C   0  0  0  0  0  0  0  0  0  0  0  0
  -17.3918    8.1421  -21.9585 O   0  0  0  0  0  0  0  0  0  0  0  0
  -17.9603    9.4252  -21.6172 C   0  0  0  0  0  0  0  0  0  0  0  0
  -17.3182   10.0525  -20.4886 O   0  0  0  0  0  0  0  0  0  0  0  0
 11 12  1  0  0  0
 12  1  1  0  0  0
  1  2  1  0  0  0
  1 10  2  0  0  0
  2  3  2  0  0  0
  3  4  1  0  0  0
  3  8  1  0  0  0
  4 13  1  0  0  0
  4  5  2  0  0  0
 13 15  1  0  0  0
 13 14  1  0  0  0
 15 16  1  0  0  0
 15 22  2  0  0  0
 16 17  2  0  0  0
 17 18  1  0  0  0
 18 19  1  0  0  0
 18 20  2  0  0  0
 20 21  1  0  0  0
 20 22  1  0  0  0
  5  6  1  0  0  0
  6  7  2  0  0  0
  7  8  1  0  0  0
  8  9  2  0  0  0
  9 10  1  0  0  0
 10 23  1  0  0  0
 23 24  1  0  0  0
 24 25  1  0  0  0
 25 26  1  0  0  0
 25 32  1  0  0  0
 26 27  1  0  0  0
 27 28  1  0  0  0
 27 30  1  0  0  0
 28 29  2  0  0  0
 28 33  1  0  0  0
 33 34  1  0  0  0
 33 38  2  0  0  0
 34 35  2  0  0  0
 35 36  1  0  0  0
 36 37  2  0  0  0
 36 41  1  0  0  0
 37 38  1  0  0  0
 37 39  1  0  0  0
 39 40  1  0  0  0
 40 41  1  0  0  0
 30 31  1  0  0  0
 31 32  1  0  0  0
M  END
> <minimizedAffinity>
-9.77158

$$$$
