CHEMBL179311


 28 30  0  0  0  0  0  0  0  0999 V2000
  -31.2304   -7.6481   -7.1848 N   0  0  0  0  0  0  0  0  0  0  0  0
  -32.1261   -7.3194   -7.5260 H   0  0  0  0  0  0  0  0  0  0  0  0
  -28.9512   -9.7513   -9.2337 C   0  0  0  0  0  0  0  0  0  0  0  0
  -29.6965  -10.9191   -9.3807 C   0  0  0  0  0  0  0  0  0  0  0  0
  -30.9742  -10.9970   -8.8143 C   0  0  0  0  0  0  0  0  0  0  0  0
  -31.5058   -9.9120   -8.1020 C   0  0  0  0  0  0  0  0  0  0  0  0
  -30.7297   -8.7455   -7.9208 C   0  0  0  0  0  0  0  0  0  0  0  0
  -29.4610   -8.6731   -8.5158 C   0  0  0  0  0  0  0  0  0  0  0  0
  -27.3867   -9.5713  -10.0579 S   0  0  0  0  0  0  0  0  0  0  0  0
  -26.8952   -8.2368   -9.7517 O   0  0  0  0  0  0  0  0  0  0  0  0
  -27.5761   -9.9867  -11.4328 O   0  0  0  0  0  0  0  0  0  0  0  0
  -26.2021  -10.4615   -7.7683 C   0  0  0  0  0  0  0  0  0  0  0  0
  -26.3393  -10.7623   -9.2499 C   0  0  0  0  0  0  0  0  0  0  0  0
  -32.7748   -9.8863   -7.5728 O   0  0  0  0  0  0  0  0  0  0  0  0
  -33.0959  -10.9036   -6.6292 C   0  0  0  0  0  0  0  0  0  0  0  0
  -30.4387   -6.7753   -6.5348 C   0  0  0  0  0  0  0  0  0  0  0  0
  -29.9101   -6.8601   -5.3305 N   0  0  0  0  0  0  0  0  0  0  0  0
  -29.1988   -5.6968   -5.1947 C   0  0  0  0  0  0  0  0  0  0  0  0
  -29.2969   -4.9398   -6.3403 C   0  0  0  0  0  0  0  0  0  0  0  0
  -30.1146   -5.6296   -7.2050 O   0  0  0  0  0  0  0  0  0  0  0  0
  -28.7516   -3.6682   -6.7995 C   0  0  0  0  0  0  0  0  0  0  0  0
  -28.5921   -3.4081   -8.1669 C   0  0  0  0  0  0  0  0  0  0  0  0
  -28.0505   -2.2001   -8.6069 C   0  0  0  0  0  0  0  0  0  0  0  0
  -27.6628   -1.2263   -7.6877 C   0  0  0  0  0  0  0  0  0  0  0  0
  -27.8260   -1.4528   -6.3215 C   0  0  0  0  0  0  0  0  0  0  0  0
  -28.3629   -2.6730   -5.8862 C   0  0  0  0  0  0  0  0  0  0  0  0
  -27.5110   -0.5685   -5.3250 O   0  0  0  0  0  0  0  0  0  0  0  0
  -28.2490    0.6494   -5.2905 C   0  0  0  0  0  0  0  0  0  0  0  0
 12 13  1  0  0  0
 13  9  1  0  0  0
  9 10  2  0  0  0
  9 11  2  0  0  0
  9  3  1  0  0  0
  3  4  1  0  0  0
  3  8  2  0  0  0
  4  5  2  0  0  0
  5  6  1  0  0  0
  6 14  1  0  0  0
  6  7  2  0  0  0
 14 15  1  0  0  0
  7  1  1  0  0  0
  7  8  1  0  0  0
  1 16  1  0  0  0
  1  2  1  0  0  0
 16 17  2  0  0  0
 16 20  1  0  0  0
 17 18  1  0  0  0
 18 19  2  0  0  0
 19 21  1  0  0  0
 19 20  1  0  0  0
 21 22  1  0  0  0
 21 26  2  0  0  0
 22 23  2  0  0  0
 23 24  1  0  0  0
 24 25  2  0  0  0
 25 27  1  0  0  0
 25 26  1  0  0  0
 27 28  1  0  0  0
M  END
> <minimizedAffinity>
-7.61360

$$$$
