CHEMBL379661


 27 29  0  0  0  0  0  0  0  0999 V2000
  -17.7085    2.5784  -14.9354 S   0  0  0  0  0  0  0  0  0  0  0  0
  -16.3386    1.5183  -14.6549 C   0  0  0  0  0  0  0  0  0  0  0  0
  -15.1762    1.3934  -15.3803 C   0  0  0  0  0  0  0  0  0  0  0  0
  -14.2878    0.4524  -14.9165 N   0  0  0  0  0  0  0  0  0  0  0  0
  -14.7781   -0.2085  -13.8911 C   0  0  0  0  0  0  0  0  0  0  0  0
  -16.3174    0.3793  -13.3672 S   0  0  0  0  0  0  0  0  0  0  0  0
  -14.2019   -1.2727  -13.2819 N   0  0  0  0  0  0  0  0  0  0  0  0
  -13.3382   -1.1323  -12.7714 H   0  0  0  0  0  0  0  0  0  0  0  0
  -14.8999   -2.3386  -12.7071 C   0  0  0  0  0  0  0  0  0  0  0  0
  -15.5875   -3.2971  -13.4557 C   0  0  0  0  0  0  0  0  0  0  0  0
  -16.3688   -4.2560  -12.8219 C   0  0  0  0  0  0  0  0  0  0  0  0
  -16.4137   -4.2773  -11.4403 C   0  0  0  0  0  0  0  0  0  0  0  0
  -15.6572   -3.3418  -10.7569 C   0  0  0  0  0  0  0  0  0  0  0  0
  -14.9053   -2.3850  -11.3547 N   0  0  0  0  0  0  0  0  0  0  0  0
  -18.9615    1.4628  -15.6414 C   0  0  0  0  0  0  0  0  0  0  0  0
  -22.3795    0.7855  -14.0607 C   0  0  0  0  0  0  0  0  0  0  0  0
  -22.7871    2.0800  -13.7171 C   0  0  0  0  0  0  0  0  0  0  0  0
  -21.9813    3.1704  -14.0399 C   0  0  0  0  0  0  0  0  0  0  0  0
  -20.7559    2.9741  -14.6822 C   0  0  0  0  0  0  0  0  0  0  0  0
  -20.3167    1.6831  -15.0104 C   0  0  0  0  0  0  0  0  0  0  0  0
  -21.1429    0.5907  -14.6935 C   0  0  0  0  0  0  0  0  0  0  0  0
  -22.8532   -1.0141  -12.5092 N   0  0  0  0  0  0  0  0  0  0  0  0
  -23.1958   -0.4058  -13.6990 C   0  0  0  0  0  0  0  0  0  0  0  0
  -24.0895   -0.7809  -14.4506 O   0  0  0  0  0  0  0  0  0  0  0  0
  -22.4448   -0.4788  -11.7520 H   0  0  0  0  0  0  0  0  0  0  0  0
  -24.6806   -1.5260  -11.2301 C   0  0  0  0  0  0  0  0  0  0  0  0
  -23.6964   -2.0741  -12.1047 O   0  0  0  0  0  0  0  0  0  0  0  0
 26 27  1  0  0  0
 27 22  1  0  0  0
 22 23  1  0  0  0
 22 25  1  0  0  0
 23 24  2  0  0  0
 23 16  1  0  0  0
 16 17  1  0  0  0
 16 21  2  0  0  0
 17 18  2  0  0  0
 18 19  1  0  0  0
 19 20  2  0  0  0
 20 15  1  0  0  0
 20 21  1  0  0  0
 15  1  1  0  0  0
  1  2  1  0  0  0
  2  3  2  0  0  0
  2  6  1  0  0  0
  3  4  1  0  0  0
  4  5  2  0  0  0
  5  7  1  0  0  0
  5  6  1  0  0  0
  7  9  1  0  0  0
  7  8  1  0  0  0
  9 10  1  0  0  0
  9 14  2  0  0  0
 10 11  2  0  0  0
 11 12  1  0  0  0
 12 13  2  0  0  0
 13 14  1  0  0  0
M  END
> <minimizedAffinity>
-8.09363

$$$$
