CHEMBL255956


 32 35  0  0  0  0  0  0  0  0999 V2000
  -21.6081    1.2437  -14.4996 C   0  0  0  0  0  0  0  0  0  0  0  0
  -21.6492   -0.1459  -14.3804 C   0  0  0  0  0  0  0  0  0  0  0  0
  -22.6788   -0.7678  -13.6688 C   0  0  0  0  0  0  0  0  0  0  0  0
  -23.6807   -0.0209  -13.0257 C   0  0  0  0  0  0  0  0  0  0  0  0
  -23.5271    1.3761  -13.0342 C   0  0  0  0  0  0  0  0  0  0  0  0
  -22.5169    2.0086  -13.7767 C   0  0  0  0  0  0  0  0  0  0  0  0
  -24.8330   -0.6979  -12.3925 C   0  0  0  0  0  0  0  0  0  0  0  0
  -24.8876   -0.8964  -10.9955 C   0  0  0  0  0  0  0  0  0  0  0  0
  -25.9559   -1.5636  -10.4095 C   0  0  0  0  0  0  0  0  0  0  0  0
  -27.0194   -2.0578  -11.0765 N   0  0  0  0  0  0  0  0  0  0  0  0
  -26.9370   -1.8576  -12.4026 C   0  0  0  0  0  0  0  0  0  0  0  0
  -27.8741   -2.2577  -13.3046 N   0  0  0  0  0  0  0  0  0  0  0  0
  -27.5621   -1.9804  -14.5791 N   0  0  0  0  0  0  0  0  0  0  0  0
  -26.3739   -1.3853  -14.4834 C   0  0  0  0  0  0  0  0  0  0  0  0
  -25.7155   -1.0091  -15.5927 N   0  0  0  0  0  0  0  0  0  0  0  0
  -25.9250   -1.2347  -13.1296 C   0  0  0  0  0  0  0  0  0  0  0  0
  -28.7440   -2.7319  -13.0983 H   0  0  0  0  0  0  0  0  0  0  0  0
  -26.1182   -1.3458  -16.4616 H   0  0  0  0  0  0  0  0  0  0  0  0
  -24.7016   -1.0497  -15.5954 H   0  0  0  0  0  0  0  0  0  0  0  0
  -18.6261    2.6336  -16.0221 N   0  0  0  0  0  0  0  0  0  0  0  0
  -19.3719    2.0139  -15.0386 C   0  0  0  0  0  0  0  0  0  0  0  0
  -18.9218    1.5867  -13.9813 O   0  0  0  0  0  0  0  0  0  0  0  0
  -20.7114    1.8796  -15.3947 N   0  0  0  0  0  0  0  0  0  0  0  0
  -19.1341    3.1314  -16.7381 H   0  0  0  0  0  0  0  0  0  0  0  0
  -20.8701    1.7198  -16.3788 H   0  0  0  0  0  0  0  0  0  0  0  0
  -12.9336    3.4292  -15.9181 C   0  0  0  0  0  0  0  0  0  0  0  0
  -14.4191    3.2208  -15.9518 C   0  0  0  0  0  0  0  0  0  0  0  0
  -14.9385    1.9274  -15.9612 C   0  0  0  0  0  0  0  0  0  0  0  0
  -16.3209    1.7254  -15.9922 C   0  0  0  0  0  0  0  0  0  0  0  0
  -17.2166    2.8001  -15.9995 C   0  0  0  0  0  0  0  0  0  0  0  0
  -16.6922    4.0964  -16.0011 C   0  0  0  0  0  0  0  0  0  0  0  0
  -15.3021    4.3046  -15.9762 C   0  0  0  0  0  0  0  0  0  0  0  0
 26 27  1  0  0  0
 27 28  1  0  0  0
 27 32  2  0  0  0
 28 29  2  0  0  0
 29 30  1  0  0  0
 30 20  1  0  0  0
 30 31  2  0  0  0
 20 21  1  0  0  0
 20 24  1  0  0  0
 21 22  2  0  0  0
 21 23  1  0  0  0
 23  1  1  0  0  0
 23 25  1  0  0  0
  1  2  1  0  0  0
  1  6  2  0  0  0
  2  3  2  0  0  0
  3  4  1  0  0  0
  4  7  1  0  0  0
  4  5  2  0  0  0
  7  8  1  0  0  0
  7 16  2  0  0  0
  8  9  2  0  0  0
  9 10  1  0  0  0
 10 11  2  0  0  0
 11 12  1  0  0  0
 11 16  1  0  0  0
 12 13  1  0  0  0
 12 17  1  0  0  0
 13 14  2  0  0  0
 14 15  1  0  0  0
 14 16  1  0  0  0
 15 18  1  0  0  0
 15 19  1  0  0  0
  5  6  1  0  0  0
 31 32  1  0  0  0
M  END
> <minimizedAffinity>
-9.56575

$$$$
