CHEMBL2113172


 30 32  0  0  0  0  0  0  0  0999 V2000
  -16.4240    2.4578  -15.9147 C   0  0  0  0  0  0  0  0  0  0  0  0
  -15.0538    2.1522  -15.7385 C   0  0  0  0  0  0  0  0  0  0  0  0
  -14.5825    1.1677  -14.8733 C   0  0  0  0  0  0  0  0  0  0  0  0
  -13.2627    0.9772  -14.7406 N   0  0  0  0  0  0  0  0  0  0  0  0
  -12.8759    0.0255  -13.8828 C   0  0  0  0  0  0  0  0  0  0  0  0
  -13.6829   -0.7629  -13.1619 N   0  0  0  0  0  0  0  0  0  0  0  0
  -15.0083   -0.5709  -13.3073 C   0  0  0  0  0  0  0  0  0  0  0  0
  -15.5216    0.4210  -14.1598 C   0  0  0  0  0  0  0  0  0  0  0  0
  -16.8949    0.7168  -14.3242 C   0  0  0  0  0  0  0  0  0  0  0  0
  -17.3648    1.7092  -15.1996 C   0  0  0  0  0  0  0  0  0  0  0  0
  -15.9075   -1.3536  -12.5394 N   0  0  0  0  0  0  0  0  0  0  0  0
  -16.8759   -1.2565  -12.8512 H   0  0  0  0  0  0  0  0  0  0  0  0
  -15.6757   -2.6217  -12.0233 C   0  0  0  0  0  0  0  0  0  0  0  0
  -15.2568   -2.9154  -10.7859 C   0  0  0  0  0  0  0  0  0  0  0  0
  -15.0143   -4.2914  -10.3232 C   0  0  0  0  0  0  0  0  0  0  0  0
  -14.8367   -4.4810   -9.1255 O   0  0  0  0  0  0  0  0  0  0  0  0
  -14.9820   -5.3812  -11.3461 C   0  0  0  0  0  0  0  0  0  0  0  0
  -15.4897   -5.1092  -12.5601 C   0  0  0  0  0  0  0  0  0  0  0  0
  -15.5730   -6.3193  -13.7981 Cl  0  0  0  0  0  0  0  0  0  0  0  0
  -15.9901   -3.7575  -12.9379 C   0  0  0  0  0  0  0  0  0  0  0  0
  -16.6008   -3.5365  -13.9846 O   0  0  0  0  0  0  0  0  0  0  0  0
  -14.4771   -6.6486  -11.0809 O   0  0  0  0  0  0  0  0  0  0  0  0
  -13.0848   -6.8686  -11.2833 C   0  0  0  0  0  0  0  0  0  0  0  0
  -18.7180    1.8286  -15.0760 O   0  0  0  0  0  0  0  0  0  0  0  0
  -19.3192    3.0044  -14.5635 C   0  0  0  0  0  0  0  0  0  0  0  0
  -16.5765    3.5257  -16.7651 O   0  0  0  0  0  0  0  0  0  0  0  0
  -15.4157    4.2546  -17.1089 C   0  0  0  0  0  0  0  0  0  0  0  0
  -15.2727    4.5284  -18.5987 C   0  0  0  0  0  0  0  0  0  0  0  0
  -13.0771    3.6156  -18.6507 C   0  0  0  0  0  0  0  0  0  0  0  0
  -14.4162    3.4909  -19.0869 O   0  0  0  0  0  0  0  0  0  0  0  0
 29 30  1  0  0  0
 30 28  1  0  0  0
 28 27  1  0  0  0
 27 26  1  0  0  0
 26  1  1  0  0  0
  1  2  1  0  0  0
  1 10  2  0  0  0
  2  3  2  0  0  0
  3  4  1  0  0  0
  3  8  1  0  0  0
  4  5  2  0  0  0
  5  6  1  0  0  0
  6  7  2  0  0  0
  7 11  1  0  0  0
  7  8  1  0  0  0
 11 13  1  0  0  0
 11 12  1  0  0  0
 13 14  2  0  0  0
 13 20  1  0  0  0
 14 15  1  0  0  0
 15 16  2  0  0  0
 15 17  1  0  0  0
 17 22  1  0  0  0
 17 18  2  0  0  0
 22 23  1  0  0  0
 18 19  1  0  0  0
 18 20  1  0  0  0
 20 21  2  0  0  0
  8  9  2  0  0  0
  9 10  1  0  0  0
 10 24  1  0  0  0
 24 25  1  0  0  0
M  END
> <minimizedAffinity>
-6.71323

$$$$
