CHEMBL3782019


 30 33  0  0  0  0  0  0  0  0999 V2000
  -17.4524    2.7631  -15.4518 C   0  0  0  0  0  0  0  0  0  0  0  0
  -17.0710    4.0760  -15.7100 C   0  0  0  0  0  0  0  0  0  0  0  0
  -15.8137    4.4308  -16.0569 N   0  0  0  0  0  0  0  0  0  0  0  0
  -14.9216    3.4257  -16.1575 C   0  0  0  0  0  0  0  0  0  0  0  0
  -13.6104    3.6864  -16.5212 C   0  0  0  0  0  0  0  0  0  0  0  0
  -12.6403    2.7589  -16.6724 N   0  0  0  0  0  0  0  0  0  0  0  0
  -13.0064    1.4867  -16.4286 C   0  0  0  0  0  0  0  0  0  0  0  0
  -14.2817    1.0935  -16.0232 C   0  0  0  0  0  0  0  0  0  0  0  0
  -15.2678    2.0822  -15.9037 C   0  0  0  0  0  0  0  0  0  0  0  0
  -16.5394    1.7590  -15.5493 N   0  0  0  0  0  0  0  0  0  0  0  0
  -21.4844    1.6826  -14.3461 C   0  0  0  0  0  0  0  0  0  0  0  0
  -21.0734    3.0126  -14.3236 C   0  0  0  0  0  0  0  0  0  0  0  0
  -19.7665    3.3532  -14.6974 C   0  0  0  0  0  0  0  0  0  0  0  0
  -18.8340    2.3808  -15.1020 C   0  0  0  0  0  0  0  0  0  0  0  0
  -19.2785    1.0468  -15.1368 C   0  0  0  0  0  0  0  0  0  0  0  0
  -20.5825    0.7049  -14.7607 C   0  0  0  0  0  0  0  0  0  0  0  0
  -22.8689   -0.2002  -13.9284 C   0  0  0  0  0  0  0  0  0  0  0  0
  -22.7159    1.2121  -13.9888 O   0  0  0  0  0  0  0  0  0  0  0  0
  -14.5960   -0.2683  -15.7699 N   0  0  0  0  0  0  0  0  0  0  0  0
  -15.4579   -0.5572  -16.2358 H   0  0  0  0  0  0  0  0  0  0  0  0
  -14.2904   -1.0468  -14.6308 C   0  0  0  0  0  0  0  0  0  0  0  0
  -15.2070   -1.1083  -13.5550 C   0  0  0  0  0  0  0  0  0  0  0  0
  -14.9456   -1.8354  -12.3976 C   0  0  0  0  0  0  0  0  0  0  0  0
  -13.7598   -2.5558  -12.3115 C   0  0  0  0  0  0  0  0  0  0  0  0
  -12.8531   -2.5450  -13.3740 C   0  0  0  0  0  0  0  0  0  0  0  0
  -13.0986   -1.7846  -14.5271 C   0  0  0  0  0  0  0  0  0  0  0  0
  -15.7701   -1.9169  -11.3088 O   0  0  0  0  0  0  0  0  0  0  0  0
  -15.6344   -3.0762  -10.4928 C   0  0  0  0  0  0  0  0  0  0  0  0
  -12.1126   -1.8923  -15.4748 O   0  0  0  0  0  0  0  0  0  0  0  0
  -11.7629   -3.2067  -15.8937 C   0  0  0  0  0  0  0  0  0  0  0  0
 17 18  1  0  0  0
 18 11  1  0  0  0
 11 12  1  0  0  0
 11 16  2  0  0  0
 12 13  2  0  0  0
 13 14  1  0  0  0
 14  1  1  0  0  0
 14 15  2  0  0  0
  1  2  1  0  0  0
  1 10  2  0  0  0
  2  3  2  0  0  0
  3  4  1  0  0  0
  4  5  1  0  0  0
  4  9  2  0  0  0
  5  6  2  0  0  0
  6  7  1  0  0  0
  7  8  2  0  0  0
  8 19  1  0  0  0
  8  9  1  0  0  0
 19 21  1  0  0  0
 19 20  1  0  0  0
 21 22  1  0  0  0
 21 26  2  0  0  0
 22 23  2  0  0  0
 23 27  1  0  0  0
 23 24  1  0  0  0
 27 28  1  0  0  0
 24 25  2  0  0  0
 25 26  1  0  0  0
 26 29  1  0  0  0
 29 30  1  0  0  0
  9 10  1  0  0  0
 15 16  1  0  0  0
M  END
> <minimizedAffinity>
-7.63297

$$$$
