CHEMBL3690479


 23 25  0  0  0  0  0  0  0  0999 V2000
  -15.5971   -2.2154  -13.0147 C   0  0  0  0  0  0  0  0  0  0  0  0
  -15.9091   -2.1958  -11.7457 N   0  0  0  0  0  0  0  0  0  0  0  0
  -15.0799   -3.0518  -11.0568 C   0  0  0  0  0  0  0  0  0  0  0  0
  -14.1255   -3.7088  -11.8115 C   0  0  0  0  0  0  0  0  0  0  0  0
  -14.3898   -3.3307  -13.4749 S   0  0  0  0  0  0  0  0  0  0  0  0
  -13.0704   -4.5753  -11.3715 C   0  0  0  0  0  0  0  0  0  0  0  0
  -11.9954   -4.3020  -10.5448 C   0  0  0  0  0  0  0  0  0  0  0  0
  -11.2066   -5.4052  -10.3504 N   0  0  0  0  0  0  0  0  0  0  0  0
  -11.7821   -6.3682  -11.0359 C   0  0  0  0  0  0  0  0  0  0  0  0
  -11.4229   -7.7388  -11.1888 C   0  0  0  0  0  0  0  0  0  0  0  0
  -12.1868   -8.5516  -11.9417 C   0  0  0  0  0  0  0  0  0  0  0  0
  -11.7848  -10.2170  -12.1322 Cl  0  0  0  0  0  0  0  0  0  0  0  0
  -13.3833   -8.0631  -12.6072 C   0  0  0  0  0  0  0  0  0  0  0  0
  -13.7342   -6.7740  -12.4589 C   0  0  0  0  0  0  0  0  0  0  0  0
  -12.9355   -5.9213  -11.6865 N   0  0  0  0  0  0  0  0  0  0  0  0
  -16.6245    0.5250  -15.0584 N   0  0  0  0  0  0  0  0  0  0  0  0
  -16.0522   -0.0810  -13.9491 C   0  0  0  0  0  0  0  0  0  0  0  0
  -15.5255    0.5810  -13.0625 O   0  0  0  0  0  0  0  0  0  0  0  0
  -16.1119   -1.4503  -14.0286 N   0  0  0  0  0  0  0  0  0  0  0  0
  -17.4571    0.0681  -15.4009 H   0  0  0  0  0  0  0  0  0  0  0  0
  -16.1973   -1.8766  -14.9361 H   0  0  0  0  0  0  0  0  0  0  0  0
  -17.8229    2.5566  -15.7934 C   0  0  0  0  0  0  0  0  0  0  0  0
  -16.6087    1.9767  -15.0990 C   0  0  0  0  0  0  0  0  0  0  0  0
 22 23  1  0  0  0
 23 16  1  0  0  0
 16 17  1  0  0  0
 16 20  1  0  0  0
 17 18  2  0  0  0
 17 19  1  0  0  0
 19  1  1  0  0  0
 19 21  1  0  0  0
  1  2  2  0  0  0
  1  5  1  0  0  0
  2  3  1  0  0  0
  3  4  2  0  0  0
  4  6  1  0  0  0
  4  5  1  0  0  0
  6  7  2  0  0  0
  6 15  1  0  0  0
  7  8  1  0  0  0
  8  9  2  0  0  0
  9 10  1  0  0  0
  9 15  1  0  0  0
 10 11  2  0  0  0
 11 12  1  0  0  0
 11 13  1  0  0  0
 13 14  2  0  0  0
 14 15  1  0  0  0
M  END
> <minimizedAffinity>
-6.30968

$$$$
