CHEMBL4436272


 36 39  0  0  0  0  0  0  0  0999 V2000
  -27.9990   -8.3916   -5.0982 C   0  0  0  0  0  0  0  0  0  0  0  0
  -26.7564   -8.6347   -4.5306 C   0  0  0  0  0  0  0  0  0  0  0  0
  -26.6729   -9.7563   -3.6809 C   0  0  0  0  0  0  0  0  0  0  0  0
  -25.4826  -10.3635   -3.2627 C   0  0  0  0  0  0  0  0  0  0  0  0
  -25.2670  -11.6448   -3.7339 C   0  0  0  0  0  0  0  0  0  0  0  0
  -26.2062  -12.1150   -4.6492 C   0  0  0  0  0  0  0  0  0  0  0  0
  -27.5483  -11.7299   -4.4314 C   0  0  0  0  0  0  0  0  0  0  0  0
  -27.8100  -10.5108   -3.7653 C   0  0  0  0  0  0  0  0  0  0  0  0
  -28.9844   -9.8164   -3.6311 N   0  0  0  0  0  0  0  0  0  0  0  0
  -28.9497   -8.5688   -4.1406 C   0  0  0  0  0  0  0  0  0  0  0  0
  -29.1854  -10.1192   -8.9256 C   0  0  0  0  0  0  0  0  0  0  0  0
  -27.8611  -10.1571   -8.5278 C   0  0  0  0  0  0  0  0  0  0  0  0
  -27.5037   -9.4969   -7.3515 C   0  0  0  0  0  0  0  0  0  0  0  0
  -28.4445   -8.8536   -6.4908 C   0  0  0  0  0  0  0  0  0  0  0  0
  -29.7122   -8.6568   -7.0391 C   0  0  0  0  0  0  0  0  0  0  0  0
  -30.0718   -9.2756   -8.2552 C   0  0  0  0  0  0  0  0  0  0  0  0
  -28.9541  -10.3845  -11.2217 C   0  0  0  0  0  0  0  0  0  0  0  0
  -29.5422  -10.8681  -10.0117 O   0  0  0  0  0  0  0  0  0  0  0  0
  -25.6595  -11.8541   -5.9305 O   0  0  0  0  0  0  0  0  0  0  0  0
  -24.3602  -12.3246   -6.2406 C   0  0  0  0  0  0  0  0  0  0  0  0
  -29.8057   -7.5251   -3.7412 N   0  0  0  0  0  0  0  0  0  0  0  0
  -30.7288   -7.8965   -3.5557 H   0  0  0  0  0  0  0  0  0  0  0  0
  -29.7590   -6.1227   -3.9460 C   0  0  0  0  0  0  0  0  0  0  0  0
  -30.7115   -5.5398   -4.7878 C   0  0  0  0  0  0  0  0  0  0  0  0
  -30.5893   -4.2135   -5.2365 C   0  0  0  0  0  0  0  0  0  0  0  0
  -29.5050   -3.4246   -4.8580 C   0  0  0  0  0  0  0  0  0  0  0  0
  -28.6541   -3.9294   -3.8776 C   0  0  0  0  0  0  0  0  0  0  0  0
  -28.8154   -5.2433   -3.3967 C   0  0  0  0  0  0  0  0  0  0  0  0
  -29.1857   -2.1802   -5.4473 N   0  0  0  0  0  0  0  0  0  0  0  0
  -28.2732   -1.9467   -6.4593 C   0  0  0  0  0  0  0  0  0  0  0  0
  -27.7141   -2.8103   -7.1554 O   0  0  0  0  0  0  0  0  0  0  0  0
  -29.5622   -1.3492   -5.0001 H   0  0  0  0  0  0  0  0  0  0  0  0
  -27.9856   -0.4642   -6.7364 C   0  0  0  0  0  0  0  0  0  0  0  0
  -28.8470    0.4434   -5.9424 N   0  0  0  0  0  0  0  0  0  0  0  0
  -28.0909    1.0251   -4.8228 C   0  0  0  0  0  0  0  0  0  0  0  0
  -29.3135    1.5328   -6.8079 C   0  0  0  0  0  0  0  0  0  0  0  0
 17 18  1  0  0  0
 18 11  1  0  0  0
 11 12  1  0  0  0
 11 16  2  0  0  0
 12 13  2  0  0  0
 13 14  1  0  0  0
 14  1  1  0  0  0
 14 15  2  0  0  0
  1  2  1  0  0  0
  1 10  2  0  0  0
  2  3  2  0  0  0
  3  4  1  0  0  0
  3  8  1  0  0  0
  4  5  2  0  0  0
  5  6  1  0  0  0
  6 19  1  0  0  0
  6  7  2  0  0  0
 19 20  1  0  0  0
  7  8  1  0  0  0
  8  9  2  0  0  0
  9 10  1  0  0  0
 10 21  1  0  0  0
 21 23  1  0  0  0
 21 22  1  0  0  0
 23 24  1  0  0  0
 23 28  2  0  0  0
 24 25  2  0  0  0
 25 26  1  0  0  0
 26 29  1  0  0  0
 26 27  2  0  0  0
 29 30  1  0  0  0
 29 32  1  0  0  0
 30 31  2  0  0  0
 30 33  1  0  0  0
 33 34  1  0  0  0
 34 35  1  0  0  0
 34 36  1  0  0  0
 27 28  1  0  0  0
 15 16  1  0  0  0
M  END
> <minimizedAffinity>
-7.78841

$$$$
