CHEMBL205142


 33 37  0  0  0  0  0  0  0  0999 V2000
  -21.5975    1.2581  -14.4888 C   0  0  0  0  0  0  0  0  0  0  0  0
  -22.3225    2.2468  -14.0875 N   0  0  0  0  0  0  0  0  0  0  0  0
  -21.6931    3.4576  -13.9597 C   0  0  0  0  0  0  0  0  0  0  0  0
  -20.4496    3.7235  -14.2242 N   0  0  0  0  0  0  0  0  0  0  0  0
  -19.7383    2.6655  -14.6469 N   0  0  0  0  0  0  0  0  0  0  0  0
  -18.4259    2.6975  -15.0044 C   0  0  0  0  0  0  0  0  0  0  0  0
  -18.0453    1.4091  -15.3375 C   0  0  0  0  0  0  0  0  0  0  0  0
  -19.1975    0.5747  -15.2294 C   0  0  0  0  0  0  0  0  0  0  0  0
  -19.3459   -0.8833  -15.5007 C   0  0  0  0  0  0  0  0  0  0  0  0
  -20.2198    1.4064  -14.7838 C   0  0  0  0  0  0  0  0  0  0  0  0
  -22.0525   -0.0285  -14.6927 O   0  0  0  0  0  0  0  0  0  0  0  0
  -28.1809   -1.6909  -11.0369 C   0  0  0  0  0  0  0  0  0  0  0  0
  -26.8524   -1.6862  -11.6958 C   0  0  0  0  0  0  0  0  0  0  0  0
  -26.5017   -1.4827  -13.0147 C   0  0  0  0  0  0  0  0  0  0  0  0
  -25.0928   -1.2951  -13.0620 C   0  0  0  0  0  0  0  0  0  0  0  0
  -24.1908   -0.8875  -14.0603 C   0  0  0  0  0  0  0  0  0  0  0  0
  -24.6284   -0.6099  -15.2983 F   0  0  0  0  0  0  0  0  0  0  0  0
  -22.8505   -0.6775  -13.7251 C   0  0  0  0  0  0  0  0  0  0  0  0
  -22.3854   -0.9058  -12.4297 C   0  0  0  0  0  0  0  0  0  0  0  0
  -23.2549   -1.3639  -11.4348 C   0  0  0  0  0  0  0  0  0  0  0  0
  -24.6060   -1.5186  -11.7727 C   0  0  0  0  0  0  0  0  0  0  0  0
  -25.6873   -1.8483  -10.9856 N   0  0  0  0  0  0  0  0  0  0  0  0
  -25.6317   -2.0558   -9.9978 H   0  0  0  0  0  0  0  0  0  0  0  0
  -16.7864    1.0546  -15.7230 O   0  0  0  0  0  0  0  0  0  0  0  0
  -15.8369    1.1725  -14.6453 C   0  0  0  0  0  0  0  0  0  0  0  0
  -16.1472    0.2355  -13.4887 C   0  0  0  0  0  0  0  0  0  0  0  0
  -15.3260   -1.0594  -13.6391 C   0  0  0  0  0  0  0  0  0  0  0  0
  -15.9677   -2.2276  -13.0220 N   0  0  0  0  0  0  0  0  0  0  0  0
  -15.7783   -3.4441  -13.8267 C   0  0  0  0  0  0  0  0  0  0  0  0
  -16.5563   -4.6132  -13.2357 C   0  0  0  0  0  0  0  0  0  0  0  0
  -16.1439   -4.8757  -11.7952 C   0  0  0  0  0  0  0  0  0  0  0  0
  -16.2229   -3.5924  -10.9750 C   0  0  0  0  0  0  0  0  0  0  0  0
  -15.4666   -2.4449  -11.6512 C   0  0  0  0  0  0  0  0  0  0  0  0
 12 13  1  0  0  0
 13 14  2  0  0  0
 13 22  1  0  0  0
 14 15  1  0  0  0
 15 16  1  0  0  0
 15 21  2  0  0  0
 16 17  1  0  0  0
 16 18  2  0  0  0
 18 11  1  0  0  0
 18 19  1  0  0  0
 11  1  1  0  0  0
  1  2  2  0  0  0
  1 10  1  0  0  0
  2  3  1  0  0  0
  3  4  2  0  0  0
  4  5  1  0  0  0
  5  6  1  0  0  0
  5 10  1  0  0  0
  6  7  2  0  0  0
  7 24  1  0  0  0
  7  8  1  0  0  0
 24 25  1  0  0  0
 25 26  1  0  0  0
 26 27  1  0  0  0
 27 28  1  0  0  0
 28 29  1  0  0  0
 28 33  1  0  0  0
 29 30  1  0  0  0
 30 31  1  0  0  0
 31 32  1  0  0  0
 32 33  1  0  0  0
  8  9  1  0  0  0
  8 10  2  0  0  0
 19 20  2  0  0  0
 20 21  1  0  0  0
 21 22  1  0  0  0
 22 23  1  0  0  0
M  END
> <minimizedAffinity>
-9.88379

$$$$
