CHEMBL3676392


 40 42  0  0  0  0  0  0  0  0999 V2000
  -14.5627   -0.4125  -14.2765 C   0  0  0  0  0  0  0  0  0  0  0  0
  -15.4310    0.3728  -15.0362 C   0  0  0  0  0  0  0  0  0  0  0  0
  -15.1676    1.7472  -15.2418 C   0  0  0  0  0  0  0  0  0  0  0  0
  -16.0562    2.6482  -15.8555 C   0  0  0  0  0  0  0  0  0  0  0  0
  -15.7283    3.9329  -16.0818 N   0  0  0  0  0  0  0  0  0  0  0  0
  -14.5267    4.3271  -15.6529 C   0  0  0  0  0  0  0  0  0  0  0  0
  -13.6229    3.5684  -15.0233 N   0  0  0  0  0  0  0  0  0  0  0  0
  -13.9510    2.2907  -14.8116 C   0  0  0  0  0  0  0  0  0  0  0  0
  -13.0503    1.4687  -14.1455 C   0  0  0  0  0  0  0  0  0  0  0  0
  -13.3273    0.1243  -13.8656 C   0  0  0  0  0  0  0  0  0  0  0  0
  -15.5125   -1.9627  -12.6696 C   0  0  0  0  0  0  0  0  0  0  0  0
  -15.6208   -1.1487  -11.7613 O   0  0  0  0  0  0  0  0  0  0  0  0
  -15.0273   -1.7031  -13.9391 N   0  0  0  0  0  0  0  0  0  0  0  0
  -15.4413   -2.2606  -14.6779 H   0  0  0  0  0  0  0  0  0  0  0  0
  -16.3328   -3.8413  -11.3198 C   0  0  0  0  0  0  0  0  0  0  0  0
  -15.9563   -3.3747  -12.5150 C   0  0  0  0  0  0  0  0  0  0  0  0
  -17.3476    2.2058  -16.2211 N   0  0  0  0  0  0  0  0  0  0  0  0
  -17.3154    1.4686  -16.9196 H   0  0  0  0  0  0  0  0  0  0  0  0
  -18.5142    2.1773  -15.4306 C   0  0  0  0  0  0  0  0  0  0  0  0
  -19.1984    3.3528  -15.1014 C   0  0  0  0  0  0  0  0  0  0  0  0
  -20.4872    3.3026  -14.5659 C   0  0  0  0  0  0  0  0  0  0  0  0
  -21.0898    2.0696  -14.3257 C   0  0  0  0  0  0  0  0  0  0  0  0
  -22.8973    2.0084  -13.7770 Br  0  0  0  0  0  0  0  0  0  0  0  0
  -20.3899    0.8873  -14.5427 C   0  0  0  0  0  0  0  0  0  0  0  0
  -19.1131    0.9530  -15.0948 C   0  0  0  0  0  0  0  0  0  0  0  0
  -18.4580   -0.1925  -15.3450 F   0  0  0  0  0  0  0  0  0  0  0  0
  -12.2733   -0.5422  -13.2668 O   0  0  0  0  0  0  0  0  0  0  0  0
  -11.3880   -1.1699  -14.1904 C   0  0  0  0  0  0  0  0  0  0  0  0
  -11.1462   -2.6508  -13.9212 C   0  0  0  0  0  0  0  0  0  0  0  0
  -12.3807   -3.3406  -13.6042 O   0  0  0  0  0  0  0  0  0  0  0  0
  -12.1959   -4.7419  -13.4030 C   0  0  0  0  0  0  0  0  0  0  0  0
  -12.0432   -5.0888  -11.9254 C   0  0  0  0  0  0  0  0  0  0  0  0
  -12.9422   -4.2805  -11.1383 O   0  0  0  0  0  0  0  0  0  0  0  0
  -12.3549   -3.4596  -10.2143 C   0  0  0  0  0  0  0  0  0  0  0  0
  -11.3862   -2.7403  -10.4267 O   0  0  0  0  0  0  0  0  0  0  0  0
  -13.0369   -3.6053   -8.8839 C   0  0  0  0  0  0  0  0  0  0  0  0
  -13.0338   -5.0148   -8.3800 C   0  0  0  0  0  0  0  0  0  0  0  0
  -12.2061   -5.5232   -7.6509 O   0  0  0  0  0  0  0  0  0  0  0  0
  -14.1290   -5.7143   -8.8110 O   0  0  0  0  0  0  0  0  0  0  0  0
  -14.7518   -5.2099   -9.3673 H   0  0  0  0  0  0  0  0  0  0  0  0
 15 16  2  0  0  0
 16 11  1  0  0  0
 11 12  2  0  0  0
 11 13  1  0  0  0
 13  1  1  0  0  0
 13 14  1  0  0  0
  1  2  1  0  0  0
  1 10  2  0  0  0
  2  3  2  0  0  0
  3  4  1  0  0  0
  3  8  1  0  0  0
  4 17  1  0  0  0
  4  5  2  0  0  0
 17 19  1  0  0  0
 17 18  1  0  0  0
 19 20  1  0  0  0
 19 25  2  0  0  0
 20 21  2  0  0  0
 21 22  1  0  0  0
 22 23  1  0  0  0
 22 24  2  0  0  0
 24 25  1  0  0  0
 25 26  1  0  0  0
  5  6  1  0  0  0
  6  7  2  0  0  0
  7  8  1  0  0  0
  8  9  2  0  0  0
  9 10  1  0  0  0
 10 27  1  0  0  0
 27 28  1  0  0  0
 28 29  1  0  0  0
 29 30  1  0  0  0
 30 31  1  0  0  0
 31 32  1  0  0  0
 32 33  1  0  0  0
 33 34  1  0  0  0
 34 35  2  0  0  0
 34 36  1  0  0  0
 36 37  1  0  0  0
 37 38  2  0  0  0
 37 39  1  0  0  0
 39 40  1  0  0  0
M  END
> <minimizedAffinity>
-7.60660

$$$$
