CHEMBL381603


 27 31  0  0  0  0  0  0  0  0999 V2000
  -28.5515   -1.5569   -6.4715 C   0  0  0  0  0  0  0  0  0  0  0  0
  -28.6971   -0.4603   -7.3538 C   0  0  0  0  0  0  0  0  0  0  0  0
  -28.6124    0.8585   -6.9111 C   0  0  0  0  0  0  0  0  0  0  0  0
  -28.3812    1.1138   -5.5704 C   0  0  0  0  0  0  0  0  0  0  0  0
  -28.1804    0.0513   -4.6898 C   0  0  0  0  0  0  0  0  0  0  0  0
  -28.2305   -1.2958   -5.1170 C   0  0  0  0  0  0  0  0  0  0  0  0
  -28.3012   -8.8000   -8.6517 Cl  0  0  0  0  0  0  0  0  0  0  0  0
  -28.9065   -7.2613   -8.1660 C   0  0  0  0  0  0  0  0  0  0  0  0
  -30.2263   -7.1593   -7.7172 C   0  0  0  0  0  0  0  0  0  0  0  0
  -30.7439   -5.9387   -7.2724 C   0  0  0  0  0  0  0  0  0  0  0  0
  -29.8652   -4.8552   -7.2859 C   0  0  0  0  0  0  0  0  0  0  0  0
  -29.9969   -3.5597   -6.8637 N   0  0  0  0  0  0  0  0  0  0  0  0
  -28.7873   -2.9078   -7.0098 C   0  0  0  0  0  0  0  0  0  0  0  0
  -27.9311   -3.7086   -7.6152 N   0  0  0  0  0  0  0  0  0  0  0  0
  -28.5582   -4.9270   -7.7447 C   0  0  0  0  0  0  0  0  0  0  0  0
  -28.0593   -6.1477   -8.2079 C   0  0  0  0  0  0  0  0  0  0  0  0
  -30.8128   -3.1756   -6.4125 H   0  0  0  0  0  0  0  0  0  0  0  0
  -27.8443   -2.3594   -4.1048 C   0  0  0  0  0  0  0  0  0  0  0  0
  -28.9218   -3.2616   -3.6935 N   0  0  0  0  0  0  0  0  0  0  0  0
  -30.1711   -2.8254   -3.3168 C   0  0  0  0  0  0  0  0  0  0  0  0
  -31.0067   -3.9100   -3.2140 C   0  0  0  0  0  0  0  0  0  0  0  0
  -30.2573   -5.0620   -3.5623 C   0  0  0  0  0  0  0  0  0  0  0  0
  -30.5783   -6.4213   -3.6744 C   0  0  0  0  0  0  0  0  0  0  0  0
  -29.6490   -7.3243   -4.0662 N   0  0  0  0  0  0  0  0  0  0  0  0
  -28.4084   -6.8839   -4.3587 C   0  0  0  0  0  0  0  0  0  0  0  0
  -27.9929   -5.5607   -4.2897 C   0  0  0  0  0  0  0  0  0  0  0  0
  -28.9562   -4.6382   -3.8677 C   0  0  0  0  0  0  0  0  0  0  0  0
  7  8  1  0  0  0
  8  9  1  0  0  0
  8 16  2  0  0  0
  9 10  2  0  0  0
 10 11  1  0  0  0
 11 12  1  0  0  0
 11 15  2  0  0  0
 12 13  1  0  0  0
 12 17  1  0  0  0
 13  1  1  0  0  0
 13 14  2  0  0  0
  1  2  1  0  0  0
  1  6  2  0  0  0
  2  3  2  0  0  0
  3  4  1  0  0  0
  4  5  2  0  0  0
  5  6  1  0  0  0
  6 18  1  0  0  0
 18 19  1  0  0  0
 19 20  1  0  0  0
 19 27  1  0  0  0
 20 21  2  0  0  0
 21 22  1  0  0  0
 22 23  1  0  0  0
 22 27  2  0  0  0
 23 24  2  0  0  0
 24 25  1  0  0  0
 25 26  2  0  0  0
 26 27  1  0  0  0
 14 15  1  0  0  0
 15 16  1  0  0  0
M  END
> <minimizedAffinity>
-7.97280

$$$$
