CHEMBL3660267


 38 41  0  0  0  0  0  0  0  0999 V2000
  -27.8400  -10.0392   -7.9337 C   0  0  0  0  0  0  0  0  0  0  0  0
  -27.7565   -8.8245   -8.6238 C   0  0  0  0  0  0  0  0  0  0  0  0
  -28.7151   -7.8300   -8.4290 C   0  0  0  0  0  0  0  0  0  0  0  0
  -29.8017   -8.0635   -7.5851 C   0  0  0  0  0  0  0  0  0  0  0  0
  -29.8876   -9.2778   -6.8958 C   0  0  0  0  0  0  0  0  0  0  0  0
  -28.9232  -10.2773   -7.0873 C   0  0  0  0  0  0  0  0  0  0  0  0
  -24.7413  -11.8247   -7.3503 N   0  0  0  0  0  0  0  0  0  0  0  0
  -25.7494  -10.9142   -7.1019 C   0  0  0  0  0  0  0  0  0  0  0  0
  -25.7942  -10.1526   -6.1425 O   0  0  0  0  0  0  0  0  0  0  0  0
  -26.7868  -10.9866   -8.0301 N   0  0  0  0  0  0  0  0  0  0  0  0
  -24.9101  -12.5072   -8.0732 H   0  0  0  0  0  0  0  0  0  0  0  0
  -27.0627  -11.9296   -8.2612 H   0  0  0  0  0  0  0  0  0  0  0  0
  -22.8503  -12.4644   -2.8180 C   0  0  0  0  0  0  0  0  0  0  0  0
  -22.6518  -12.2856   -4.2958 C   0  0  0  0  0  0  0  0  0  0  0  0
  -21.3559  -12.2160   -4.8162 C   0  0  0  0  0  0  0  0  0  0  0  0
  -21.1651  -12.0794   -6.1848 C   0  0  0  0  0  0  0  0  0  0  0  0
  -22.2615  -11.9939   -7.0386 C   0  0  0  0  0  0  0  0  0  0  0  0
  -21.9830  -12.0058   -8.3477 F   0  0  0  0  0  0  0  0  0  0  0  0
  -23.5770  -11.9960   -6.5484 C   0  0  0  0  0  0  0  0  0  0  0  0
  -23.7569  -12.1780   -5.1658 C   0  0  0  0  0  0  0  0  0  0  0  0
  -30.7884   -7.1357   -7.3222 O   0  0  0  0  0  0  0  0  0  0  0  0
  -30.5845   -6.1879   -6.3377 C   0  0  0  0  0  0  0  0  0  0  0  0
  -30.8625   -6.3932   -4.9942 C   0  0  0  0  0  0  0  0  0  0  0  0
  -30.6399   -5.3484   -4.1157 C   0  0  0  0  0  0  0  0  0  0  0  0
  -30.1163   -4.1541   -4.4786 N   0  0  0  0  0  0  0  0  0  0  0  0
  -29.7974   -4.0028   -5.7836 C   0  0  0  0  0  0  0  0  0  0  0  0
  -30.0072   -4.9867   -6.7430 C   0  0  0  0  0  0  0  0  0  0  0  0
  -29.1996   -2.7109   -6.1123 C   0  0  0  0  0  0  0  0  0  0  0  0
  -29.3258   -1.4619   -5.5354 C   0  0  0  0  0  0  0  0  0  0  0  0
  -28.5306   -0.5231   -6.2614 C   0  0  0  0  0  0  0  0  0  0  0  0
  -27.9232   -1.2499   -7.2738 C   0  0  0  0  0  0  0  0  0  0  0  0
  -28.3350   -2.5591   -7.1705 N   0  0  0  0  0  0  0  0  0  0  0  0
  -28.0589   -3.3259   -7.7725 H   0  0  0  0  0  0  0  0  0  0  0  0
  -28.4223    0.8963   -5.9501 C   0  0  0  0  0  0  0  0  0  0  0  0
  -27.9465    1.2098   -4.7088 N   0  0  0  0  0  0  0  0  0  0  0  0
  -28.7272    1.7818   -6.7396 O   0  0  0  0  0  0  0  0  0  0  0  0
  -27.6782    0.5163   -4.0334 H   0  0  0  0  0  0  0  0  0  0  0  0
  -27.8608    2.1906   -4.4874 H   0  0  0  0  0  0  0  0  0  0  0  0
 13 14  1  0  0  0
 14 15  1  0  0  0
 14 20  2  0  0  0
 15 16  2  0  0  0
 16 17  1  0  0  0
 17 18  1  0  0  0
 17 19  2  0  0  0
 19  7  1  0  0  0
 19 20  1  0  0  0
  7  8  1  0  0  0
  7 11  1  0  0  0
  8  9  2  0  0  0
  8 10  1  0  0  0
 10  1  1  0  0  0
 10 12  1  0  0  0
  1  2  1  0  0  0
  1  6  2  0  0  0
  2  3  2  0  0  0
  3  4  1  0  0  0
  4 21  1  0  0  0
  4  5  2  0  0  0
 21 22  1  0  0  0
 22 23  1  0  0  0
 22 27  2  0  0  0
 23 24  2  0  0  0
 24 25  1  0  0  0
 25 26  2  0  0  0
 26 28  1  0  0  0
 26 27  1  0  0  0
 28 29  2  0  0  0
 28 32  1  0  0  0
 29 30  1  0  0  0
 30 34  1  0  0  0
 30 31  2  0  0  0
 34 35  1  0  0  0
 34 36  2  0  0  0
 35 37  1  0  0  0
 35 38  1  0  0  0
 31 32  1  0  0  0
 32 33  1  0  0  0
  5  6  1  0  0  0
M  END
> <minimizedAffinity>
-9.00250

$$$$
