CHEMBL190960


 28 30  0  0  0  0  0  0  0  0999 V2000
  -30.3758   -5.7157   -5.2502 C   0  0  0  0  0  0  0  0  0  0  0  0
  -31.4871   -6.0605   -4.4808 C   0  0  0  0  0  0  0  0  0  0  0  0
  -31.9493   -5.3044   -3.4574 N   0  0  0  0  0  0  0  0  0  0  0  0
  -31.2406   -4.1761   -3.2201 C   0  0  0  0  0  0  0  0  0  0  0  0
  -30.1186   -3.8008   -3.9588 C   0  0  0  0  0  0  0  0  0  0  0  0
  -29.6937   -4.5725   -4.9880 N   0  0  0  0  0  0  0  0  0  0  0  0
  -29.7718   -8.6195   -7.6312 C   0  0  0  0  0  0  0  0  0  0  0  0
  -28.8170   -8.0126   -8.4396 C   0  0  0  0  0  0  0  0  0  0  0  0
  -28.3934   -6.7360   -8.2915 N   0  0  0  0  0  0  0  0  0  0  0  0
  -28.9315   -6.0353   -7.2697 C   0  0  0  0  0  0  0  0  0  0  0  0
  -29.8777   -6.5258   -6.3722 C   0  0  0  0  0  0  0  0  0  0  0  0
  -30.3198   -7.8461   -6.5996 C   0  0  0  0  0  0  0  0  0  0  0  0
  -31.5166  -10.3067   -8.1629 C   0  0  0  0  0  0  0  0  0  0  0  0
  -32.4080   -9.5384   -8.5152 O   0  0  0  0  0  0  0  0  0  0  0  0
  -30.2244   -9.9447   -7.8109 N   0  0  0  0  0  0  0  0  0  0  0  0
  -29.5485  -10.6930   -7.7025 H   0  0  0  0  0  0  0  0  0  0  0  0
  -31.7719  -11.8127   -8.0740 C   0  0  0  0  0  0  0  0  0  0  0  0
  -32.9248  -11.8755   -6.0157 C   0  0  0  0  0  0  0  0  0  0  0  0
  -32.9882  -12.1453   -7.4153 O   0  0  0  0  0  0  0  0  0  0  0  0
  -29.4078   -2.6372   -3.5991 N   0  0  0  0  0  0  0  0  0  0  0  0
  -29.6330   -2.3448   -2.6555 H   0  0  0  0  0  0  0  0  0  0  0  0
  -29.0425   -1.5847   -4.4632 C   0  0  0  0  0  0  0  0  0  0  0  0
  -27.7084   -1.3931   -4.8567 C   0  0  0  0  0  0  0  0  0  0  0  0
  -27.3350   -0.3113   -5.6553 C   0  0  0  0  0  0  0  0  0  0  0  0
  -28.2968    0.6033   -6.0717 C   0  0  0  0  0  0  0  0  0  0  0  0
  -29.6238    0.4259   -5.6870 C   0  0  0  0  0  0  0  0  0  0  0  0
  -30.8154    1.5566   -6.2028 Cl  0  0  0  0  0  0  0  0  0  0  0  0
  -29.9988   -0.6535   -4.8832 C   0  0  0  0  0  0  0  0  0  0  0  0
 18 19  1  0  0  0
 19 17  1  0  0  0
 17 13  1  0  0  0
 13 14  2  0  0  0
 13 15  1  0  0  0
 15  7  1  0  0  0
 15 16  1  0  0  0
  7  8  1  0  0  0
  7 12  2  0  0  0
  8  9  2  0  0  0
  9 10  1  0  0  0
 10 11  2  0  0  0
 11  1  1  0  0  0
 11 12  1  0  0  0
  1  2  1  0  0  0
  1  6  2  0  0  0
  2  3  2  0  0  0
  3  4  1  0  0  0
  4  5  2  0  0  0
  5 20  1  0  0  0
  5  6  1  0  0  0
 20 22  1  0  0  0
 20 21  1  0  0  0
 22 23  1  0  0  0
 22 28  2  0  0  0
 23 24  2  0  0  0
 24 25  1  0  0  0
 25 26  2  0  0  0
 26 27  1  0  0  0
 26 28  1  0  0  0
M  END
> <minimizedAffinity>
-8.19849

$$$$
