CHEMBL1994938


 33 36  0  0  0  0  0  0  0  0999 V2000
  -17.4346    4.2004  -15.8841 N   0  0  0  0  0  0  0  0  0  0  0  0
  -16.9814    2.9947  -15.3670 C   0  0  0  0  0  0  0  0  0  0  0  0
  -17.8488    2.4183  -14.5108 N   0  0  0  0  0  0  0  0  0  0  0  0
  -17.5615    1.2293  -13.9587 C   0  0  0  0  0  0  0  0  0  0  0  0
  -16.4020    0.5106  -14.1839 C   0  0  0  0  0  0  0  0  0  0  0  0
  -15.4884    1.1128  -15.0830 C   0  0  0  0  0  0  0  0  0  0  0  0
  -13.9615    0.4750  -15.5847 S   0  0  0  0  0  0  0  0  0  0  0  0
  -13.6175    1.8171  -16.5497 C   0  0  0  0  0  0  0  0  0  0  0  0
  -14.6167    2.7707  -16.5482 C   0  0  0  0  0  0  0  0  0  0  0  0
  -15.7413    2.3656  -15.6852 C   0  0  0  0  0  0  0  0  0  0  0  0
  -18.4137    4.3211  -15.6475 H   0  0  0  0  0  0  0  0  0  0  0  0
  -17.2044    4.3461  -16.8579 H   0  0  0  0  0  0  0  0  0  0  0  0
  -14.4184    3.9965  -17.3429 C   0  0  0  0  0  0  0  0  0  0  0  0
  -15.1399    4.2101  -18.5323 C   0  0  0  0  0  0  0  0  0  0  0  0
  -14.9499    5.3676  -19.2963 C   0  0  0  0  0  0  0  0  0  0  0  0
  -14.0634    6.3451  -18.8570 C   0  0  0  0  0  0  0  0  0  0  0  0
  -13.8352    7.9303  -19.8588 Br  0  0  0  0  0  0  0  0  0  0  0  0
  -13.3349    6.1534  -17.6881 C   0  0  0  0  0  0  0  0  0  0  0  0
  -13.4826    4.9659  -16.9628 C   0  0  0  0  0  0  0  0  0  0  0  0
  -16.1210   -0.8050  -13.5956 C   0  0  0  0  0  0  0  0  0  0  0  0
  -15.5130   -0.9952  -12.4110 C   0  0  0  0  0  0  0  0  0  0  0  0
  -15.2441   -2.3770  -11.9359 C   0  0  0  0  0  0  0  0  0  0  0  0
  -14.1378   -2.7464  -11.5584 O   0  0  0  0  0  0  0  0  0  0  0  0
  -16.3586   -3.1801  -11.9562 N   0  0  0  0  0  0  0  0  0  0  0  0
  -17.2375   -2.8136  -12.2959 H   0  0  0  0  0  0  0  0  0  0  0  0
  -16.3145   -4.5548  -11.4950 C   0  0  0  0  0  0  0  0  0  0  0  0
  -16.6754   -5.5538  -12.5949 C   0  0  0  0  0  0  0  0  0  0  0  0
  -15.4746   -5.8912  -13.4752 C   0  0  0  0  0  0  0  0  0  0  0  0
  -14.7147   -7.0166  -12.9707 N   0  0  0  0  0  0  0  0  0  0  0  0
  -13.9698   -7.0463  -11.8265 C   0  0  0  0  0  0  0  0  0  0  0  0
  -13.4079   -8.3020  -11.8042 C   0  0  0  0  0  0  0  0  0  0  0  0
  -13.7870   -9.0242  -12.9062 N   0  0  0  0  0  0  0  0  0  0  0  0
  -14.5738   -8.2246  -13.5910 C   0  0  0  0  0  0  0  0  0  0  0  0
  1  2  1  0  0  0
  1 11  1  0  0  0
  1 12  1  0  0  0
  2  3  1  0  0  0
  2 10  2  0  0  0
  3  4  2  0  0  0
  4  5  1  0  0  0
  5 20  1  0  0  0
  5  6  2  0  0  0
 20 21  2  0  0  0
 21 22  1  0  0  0
 22 23  2  0  0  0
 22 24  1  0  0  0
 24 26  1  0  0  0
 24 25  1  0  0  0
 26 27  1  0  0  0
 27 28  1  0  0  0
 28 29  1  0  0  0
 29 30  1  0  0  0
 29 33  1  0  0  0
 30 31  2  0  0  0
 31 32  1  0  0  0
 32 33  2  0  0  0
  6  7  1  0  0  0
  6 10  1  0  0  0
  7  8  1  0  0  0
  8  9  2  0  0  0
  9 13  1  0  0  0
  9 10  1  0  0  0
 13 14  1  0  0  0
 13 19  2  0  0  0
 14 15  2  0  0  0
 15 16  1  0  0  0
 16 17  1  0  0  0
 16 18  2  0  0  0
 18 19  1  0  0  0
M  END
> <minimizedAffinity>
-7.26627

$$$$
