CHEMBL3913492


 39 43  0  0  0  0  0  0  0  0999 V2000
  -13.9892    5.6660  -17.8319 C   0  0  0  0  0  0  0  0  0  0  0  0
  -13.2444    5.4850  -16.6815 C   0  0  0  0  0  0  0  0  0  0  0  0
  -13.3164    4.2897  -16.0459 C   0  0  0  0  0  0  0  0  0  0  0  0
  -14.1251    3.3150  -16.4385 C   0  0  0  0  0  0  0  0  0  0  0  0
  -13.3895    2.2541  -16.1707 N   0  0  0  0  0  0  0  0  0  0  0  0
  -13.8529    1.6050  -15.1416 C   0  0  0  0  0  0  0  0  0  0  0  0
  -15.1059    1.1725  -15.0956 C   0  0  0  0  0  0  0  0  0  0  0  0
  -15.8899    1.8421  -16.2187 N   0  0  0  0  0  0  0  0  0  0  0  0
  -15.3456    3.2496  -17.0249 C   0  0  0  0  0  0  0  0  0  0  0  0
  -15.0706    4.6487  -18.0042 C   0  0  0  0  0  0  0  0  0  0  0  0
  -15.1069   -0.0300  -13.8743 C   0  0  0  0  0  0  0  0  0  0  0  0
  -15.7424   -0.1760  -12.5922 C   0  0  0  0  0  0  0  0  0  0  0  0
  -15.6328   -1.3643  -11.9570 N   0  0  0  0  0  0  0  0  0  0  0  0
  -14.8705   -2.1691  -12.7399 N   0  0  0  0  0  0  0  0  0  0  0  0
  -14.5427   -1.3993  -13.9163 C   0  0  0  0  0  0  0  0  0  0  0  0
  -14.4710   -3.5619  -12.1772 C   0  0  0  0  0  0  0  0  0  0  0  0
  -15.5187   -4.6960  -12.4122 C   0  0  0  0  0  0  0  0  0  0  0  0
  -15.1035   -6.0900  -11.8805 C   0  0  0  0  0  0  0  0  0  0  0  0
  -14.7454   -6.0260  -10.5054 O   0  0  0  0  0  0  0  0  0  0  0  0
  -13.6207   -5.1789  -10.3030 C   0  0  0  0  0  0  0  0  0  0  0  0
  -13.9503   -3.7116  -10.7059 C   0  0  0  0  0  0  0  0  0  0  0  0
  -13.5242    6.7711  -18.6639 N   0  0  0  0  0  0  0  0  0  0  0  0
  -16.1293    8.2983  -20.9547 C   0  0  0  0  0  0  0  0  0  0  0  0
  -15.8019    9.6343  -20.8335 C   0  0  0  0  0  0  0  0  0  0  0  0
  -14.7643   10.0443  -19.9999 C   0  0  0  0  0  0  0  0  0  0  0  0
  -14.0290    9.0848  -19.2977 C   0  0  0  0  0  0  0  0  0  0  0  0
  -14.2845    7.7058  -19.4222 C   0  0  0  0  0  0  0  0  0  0  0  0
  -15.3382    7.3377  -20.2942 C   0  0  0  0  0  0  0  0  0  0  0  0
  -18.1797    8.8527  -22.0048 C   0  0  0  0  0  0  0  0  0  0  0  0
  -17.1715    7.8679  -21.7338 O   0  0  0  0  0  0  0  0  0  0  0  0
  -14.3813   11.3354  -19.7616 O   0  0  0  0  0  0  0  0  0  0  0  0
  -12.9749   11.4418  -19.3890 C   0  0  0  0  0  0  0  0  0  0  0  0
  -12.0008    6.6840  -18.9800 C   0  0  0  0  0  0  0  0  0  0  0  0
  -11.5993    6.2983  -20.4387 C   0  0  0  0  0  0  0  0  0  0  0  0
  -12.2845    5.1241  -21.0391 N   0  0  0  0  0  0  0  0  0  0  0  0
  -12.3315    5.2257  -22.0573 H   0  0  0  0  0  0  0  0  0  0  0  0
  -11.5439    3.8730  -20.7435 C   0  0  0  0  0  0  0  0  0  0  0  0
  -12.2856    2.9450  -19.7722 C   0  0  0  0  0  0  0  0  0  0  0  0
  -11.3003    3.1237  -22.0547 C   0  0  0  0  0  0  0  0  0  0  0  0
 29 30  1  0  0  0
 30 23  1  0  0  0
 23 24  1  0  0  0
 23 28  2  0  0  0
 24 25  2  0  0  0
 25 31  1  0  0  0
 25 26  1  0  0  0
 31 32  1  0  0  0
 26 27  2  0  0  0
 27 22  1  0  0  0
 27 28  1  0  0  0
 22 33  1  0  0  0
 22  1  1  0  0  0
 33 34  1  0  0  0
 34 35  1  0  0  0
 35 37  1  0  0  0
 35 36  1  0  0  0
 37 38  1  0  0  0
 37 39  1  0  0  0
  1  2  1  0  0  0
  1 10  2  0  0  0
  2  3  2  0  0  0
  3  4  1  0  0  0
  4  5  1  0  0  0
  4  9  2  0  0  0
  5  6  2  0  0  0
  6  7  1  0  0  0
  7 11  1  0  0  0
  7  8  2  0  0  0
 11 12  1  0  0  0
 11 15  2  0  0  0
 12 13  2  0  0  0
 13 14  1  0  0  0
 14 16  1  0  0  0
 14 15  1  0  0  0
 16 17  1  0  0  0
 16 21  1  0  0  0
 17 18  1  0  0  0
 18 19  1  0  0  0
 19 20  1  0  0  0
 20 21  1  0  0  0
  8  9  1  0  0  0
  9 10  1  0  0  0
M  END
> <minimizedAffinity>
-6.43804

$$$$
