CHEMBL3109342


 33 37  0  0  0  0  0  0  0  0999 V2000
  -27.5808   -1.8990   -9.5466 C   0  0  0  0  0  0  0  0  0  0  0  0
  -27.4613   -0.7819   -8.7379 C   0  0  0  0  0  0  0  0  0  0  0  0
  -27.7253   -0.9166   -7.3858 C   0  0  0  0  0  0  0  0  0  0  0  0
  -28.0875   -2.1614   -6.8680 C   0  0  0  0  0  0  0  0  0  0  0  0
  -28.3334   -2.3010   -5.4947 C   0  0  0  0  0  0  0  0  0  0  0  0
  -28.6827   -3.5315   -4.9639 C   0  0  0  0  0  0  0  0  0  0  0  0
  -28.7874   -4.6291   -5.8073 C   0  0  0  0  0  0  0  0  0  0  0  0
  -28.5555   -4.5034   -7.1871 C   0  0  0  0  0  0  0  0  0  0  0  0
  -28.1907   -3.2629   -7.7497 C   0  0  0  0  0  0  0  0  0  0  0  0
  -27.9478   -3.1106   -9.0763 N   0  0  0  0  0  0  0  0  0  0  0  0
  -23.8337   -1.0724  -13.1160 C   0  0  0  0  0  0  0  0  0  0  0  0
  -23.7413   -0.9533  -11.6631 C   0  0  0  0  0  0  0  0  0  0  0  0
  -24.8134   -1.1648  -10.9134 C   0  0  0  0  0  0  0  0  0  0  0  0
  -26.0260   -1.5132  -11.5092 N   0  0  0  0  0  0  0  0  0  0  0  0
  -27.2575   -1.8199  -10.9633 C   0  0  0  0  0  0  0  0  0  0  0  0
  -28.0665   -2.0759  -12.0582 C   0  0  0  0  0  0  0  0  0  0  0  0
  -27.3869   -1.9763  -13.2396 N   0  0  0  0  0  0  0  0  0  0  0  0
  -26.1591   -1.6440  -12.8966 C   0  0  0  0  0  0  0  0  0  0  0  0
  -25.0067   -1.4067  -13.6969 C   0  0  0  0  0  0  0  0  0  0  0  0
  -22.7338   -0.7827  -13.9002 O   0  0  0  0  0  0  0  0  0  0  0  0
  -22.0556    0.4469  -13.6183 C   0  0  0  0  0  0  0  0  0  0  0  0
  -21.0505    0.7210  -14.7256 C   0  0  0  0  0  0  0  0  0  0  0  0
  -21.4579    3.0096  -14.3803 C   0  0  0  0  0  0  0  0  0  0  0  0
  -20.4620    2.0045  -14.5306 O   0  0  0  0  0  0  0  0  0  0  0  0
  -28.6052   -5.5768   -8.0538 O   0  0  0  0  0  0  0  0  0  0  0  0
  -29.5602   -6.5983   -7.7682 C   0  0  0  0  0  0  0  0  0  0  0  0
  -28.8860   -7.9755   -7.8467 C   0  0  0  0  0  0  0  0  0  0  0  0
  -29.8648   -9.0324   -8.3764 C   0  0  0  0  0  0  0  0  0  0  0  0
  -30.9416   -9.3759   -7.3462 C   0  0  0  0  0  0  0  0  0  0  0  0
  -30.3536   -9.8272   -6.0835 N   0  0  0  0  0  0  0  0  0  0  0  0
  -29.4621   -8.8170   -5.5106 C   0  0  0  0  0  0  0  0  0  0  0  0
  -28.3437   -8.4249   -6.4783 C   0  0  0  0  0  0  0  0  0  0  0  0
  -29.8164  -10.6773   -6.2595 H   0  0  0  0  0  0  0  0  0  0  0  0
 23 24  1  0  0  0
 24 22  1  0  0  0
 22 21  1  0  0  0
 21 20  1  0  0  0
 20 11  1  0  0  0
 11 12  1  0  0  0
 11 19  2  0  0  0
 12 13  2  0  0  0
 13 14  1  0  0  0
 14 15  1  0  0  0
 14 18  1  0  0  0
 15  1  1  0  0  0
 15 16  2  0  0  0
  1  2  1  0  0  0
  1 10  2  0  0  0
  2  3  2  0  0  0
  3  4  1  0  0  0
  4  5  1  0  0  0
  4  9  2  0  0  0
  5  6  2  0  0  0
  6  7  1  0  0  0
  7  8  2  0  0  0
  8 25  1  0  0  0
  8  9  1  0  0  0
 25 26  1  0  0  0
 26 27  1  0  0  0
 27 28  1  0  0  0
 27 32  1  0  0  0
 28 29  1  0  0  0
 29 30  1  0  0  0
 30 31  1  0  0  0
 30 33  1  0  0  0
 31 32  1  0  0  0
  9 10  1  0  0  0
 16 17  1  0  0  0
 17 18  2  0  0  0
 18 19  1  0  0  0
M  END
> <minimizedAffinity>
-8.29133

$$$$
