CHEMBL473288


 25 27  0  0  0  0  0  0  0  0999 V2000
  -28.9635   -7.7119   -4.6163 C   0  0  0  0  0  0  0  0  0  0  0  0
  -29.0717   -8.4374   -3.4926 N   0  0  0  0  0  0  0  0  0  0  0  0
  -28.5969   -9.9952   -3.8201 S   0  0  0  0  0  0  0  0  0  0  0  0
  -28.1796   -9.7311   -5.4570 C   0  0  0  0  0  0  0  0  0  0  0  0
  -28.4128   -8.4109   -5.7645 C   0  0  0  0  0  0  0  0  0  0  0  0
  -30.5446   -5.9862   -4.5675 O   0  0  0  0  0  0  0  0  0  0  0  0
  -29.3572   -6.2939   -4.6549 C   0  0  0  0  0  0  0  0  0  0  0  0
  -28.3227   -5.3852   -4.8497 N   0  0  0  0  0  0  0  0  0  0  0  0
  -27.4154   -5.7974   -5.0693 H   0  0  0  0  0  0  0  0  0  0  0  0
  -28.4958   -3.9864   -4.9460 C   0  0  0  0  0  0  0  0  0  0  0  0
  -28.6954   -3.3450   -6.1777 C   0  0  0  0  0  0  0  0  0  0  0  0
  -28.7641   -1.9547   -6.2704 C   0  0  0  0  0  0  0  0  0  0  0  0
  -28.6603   -1.1895   -5.1182 C   0  0  0  0  0  0  0  0  0  0  0  0
  -28.6960    0.6943   -5.2485 Br  0  0  0  0  0  0  0  0  0  0  0  0
  -28.5264   -1.8094   -3.8769 C   0  0  0  0  0  0  0  0  0  0  0  0
  -28.4547   -3.2090   -3.7896 C   0  0  0  0  0  0  0  0  0  0  0  0
  -28.2217   -7.8292   -6.9848 N   0  0  0  0  0  0  0  0  0  0  0  0
  -27.3549   -8.0571   -7.4854 H   0  0  0  0  0  0  0  0  0  0  0  0
  -29.2953   -7.4140   -7.8707 C   0  0  0  0  0  0  0  0  0  0  0  0
  -30.4976   -8.3408   -7.8759 C   0  0  0  0  0  0  0  0  0  0  0  0
  -30.5180   -9.6199   -8.4421 C   0  0  0  0  0  0  0  0  0  0  0  0
  -31.6856  -10.3709   -8.3749 C   0  0  0  0  0  0  0  0  0  0  0  0
  -32.8222   -9.9486   -7.7824 N   0  0  0  0  0  0  0  0  0  0  0  0
  -32.7912   -8.7184   -7.2352 C   0  0  0  0  0  0  0  0  0  0  0  0
  -31.6754   -7.8936   -7.2575 C   0  0  0  0  0  0  0  0  0  0  0  0
  6  7  2  0  0  0
  7  8  1  0  0  0
  7  1  1  0  0  0
  8 10  1  0  0  0
  8  9  1  0  0  0
 10 11  1  0  0  0
 10 16  2  0  0  0
 11 12  2  0  0  0
 12 13  1  0  0  0
 13 14  1  0  0  0
 13 15  2  0  0  0
 15 16  1  0  0  0
  1  2  2  0  0  0
  1  5  1  0  0  0
  2  3  1  0  0  0
  3  4  1  0  0  0
  4  5  2  0  0  0
  5 17  1  0  0  0
 17 19  1  0  0  0
 17 18  1  0  0  0
 19 20  1  0  0  0
 20 21  1  0  0  0
 20 25  2  0  0  0
 21 22  2  0  0  0
 22 23  1  0  0  0
 23 24  2  0  0  0
 24 25  1  0  0  0
M  END
> <minimizedAffinity>
-7.62020

$$$$
