CHEMBL244297


 43 47  0  0  0  0  0  0  0  0999 V2000
  -18.9646    1.3334  -14.9555 C   0  0  0  0  0  0  0  0  0  0  0  0
  -19.7950    0.2182  -15.1265 C   0  0  0  0  0  0  0  0  0  0  0  0
  -21.1601    0.2892  -14.8881 C   0  0  0  0  0  0  0  0  0  0  0  0
  -21.7175    1.4336  -14.3507 C   0  0  0  0  0  0  0  0  0  0  0  0
  -20.9032    2.5542  -14.1330 C   0  0  0  0  0  0  0  0  0  0  0  0
  -19.5283    2.5017  -14.4298 C   0  0  0  0  0  0  0  0  0  0  0  0
  -16.7095    0.7282  -13.2817 O   0  0  0  0  0  0  0  0  0  0  0  0
  -16.5579    1.0018  -14.4665 C   0  0  0  0  0  0  0  0  0  0  0  0
  -17.5984    1.3112  -15.3344 N   0  0  0  0  0  0  0  0  0  0  0  0
  -15.3231    0.9990  -15.0829 N   0  0  0  0  0  0  0  0  0  0  0  0
  -17.3979    1.3081  -16.3235 H   0  0  0  0  0  0  0  0  0  0  0  0
  -15.2616    1.3230  -16.0382 H   0  0  0  0  0  0  0  0  0  0  0  0
  -14.0906    0.6464  -14.4701 C   0  0  0  0  0  0  0  0  0  0  0  0
  -13.7187   -0.6635  -14.1393 C   0  0  0  0  0  0  0  0  0  0  0  0
  -12.4813   -0.9488  -13.5329 C   0  0  0  0  0  0  0  0  0  0  0  0
  -11.6040    0.1077  -13.2534 C   0  0  0  0  0  0  0  0  0  0  0  0
  -11.9553    1.4168  -13.5870 C   0  0  0  0  0  0  0  0  0  0  0  0
  -13.1846    1.6732  -14.1909 C   0  0  0  0  0  0  0  0  0  0  0  0
  -13.4978    2.9381  -14.5153 F   0  0  0  0  0  0  0  0  0  0  0  0
  -12.0995   -2.3744  -13.2019 C   0  0  0  0  0  0  0  0  0  0  0  0
  -11.0641   -2.8583  -13.9408 F   0  0  0  0  0  0  0  0  0  0  0  0
  -11.7238   -2.5159  -11.8999 F   0  0  0  0  0  0  0  0  0  0  0  0
  -13.1301   -3.2450  -13.3882 F   0  0  0  0  0  0  0  0  0  0  0  0
  -23.0619    1.5482  -14.1045 O   0  0  0  0  0  0  0  0  0  0  0  0
  -23.7615    0.5292  -13.4740 C   0  0  0  0  0  0  0  0  0  0  0  0
  -24.1421   -0.5073  -14.3479 C   0  0  0  0  0  0  0  0  0  0  0  0
  -25.1079   -1.4374  -13.9808 C   0  0  0  0  0  0  0  0  0  0  0  0
  -25.5780   -1.3235  -12.6828 C   0  0  0  0  0  0  0  0  0  0  0  0
  -26.7245   -1.7846  -12.0779 N   0  0  0  0  0  0  0  0  0  0  0  0
  -26.4039   -1.8885  -10.7409 C   0  0  0  0  0  0  0  0  0  0  0  0
  -25.5604   -0.9075  -10.4622 N   0  0  0  0  0  0  0  0  0  0  0  0
  -25.0543   -0.4982  -11.7008 C   0  0  0  0  0  0  0  0  0  0  0  0
  -24.1846    0.5236  -12.1252 C   0  0  0  0  0  0  0  0  0  0  0  0
  -27.5731   -1.2753  -12.2641 H   0  0  0  0  0  0  0  0  0  0  0  0
  -27.0813   -2.8573  -10.0182 N   0  0  0  0  0  0  0  0  0  0  0  0
  -27.5706   -2.7038   -8.7587 C   0  0  0  0  0  0  0  0  0  0  0  0
  -27.5178   -1.6641   -8.0992 O   0  0  0  0  0  0  0  0  0  0  0  0
  -27.1560   -3.7777  -10.4322 H   0  0  0  0  0  0  0  0  0  0  0  0
  -28.2325   -3.8969   -8.2398 C   0  0  0  0  0  0  0  0  0  0  0  0
  -29.4358   -4.0318   -7.5672 C   0  0  0  0  0  0  0  0  0  0  0  0
  -29.6182   -5.4073   -7.3026 C   0  0  0  0  0  0  0  0  0  0  0  0
  -28.5114   -6.0413   -7.8182 C   0  0  0  0  0  0  0  0  0  0  0  0
  -27.6658   -5.1385   -8.3960 O   0  0  0  0  0  0  0  0  0  0  0  0
  7  8  2  0  0  0
  8  9  1  0  0  0
  8 10  1  0  0  0
  9  1  1  0  0  0
  9 11  1  0  0  0
  1  2  1  0  0  0
  1  6  2  0  0  0
  2  3  2  0  0  0
  3  4  1  0  0  0
  4 24  1  0  0  0
  4  5  2  0  0  0
 24 25  1  0  0  0
 25 26  1  0  0  0
 25 33  2  0  0  0
 26 27  2  0  0  0
 27 28  1  0  0  0
 28 29  1  0  0  0
 28 32  2  0  0  0
 29 30  1  0  0  0
 29 34  1  0  0  0
 30 35  1  0  0  0
 30 31  2  0  0  0
 35 36  1  0  0  0
 35 38  1  0  0  0
 36 37  2  0  0  0
 36 39  1  0  0  0
 39 40  2  0  0  0
 39 43  1  0  0  0
 40 41  1  0  0  0
 41 42  2  0  0  0
 42 43  1  0  0  0
 31 32  1  0  0  0
 32 33  1  0  0  0
  5  6  1  0  0  0
 10 13  1  0  0  0
 10 12  1  0  0  0
 13 14  1  0  0  0
 13 18  2  0  0  0
 14 15  2  0  0  0
 15 20  1  0  0  0
 15 16  1  0  0  0
 20 21  1  0  0  0
 20 22  1  0  0  0
 20 23  1  0  0  0
 16 17  2  0  0  0
 17 18  1  0  0  0
 18 19  1  0  0  0
M  END
> <minimizedAffinity>
-10.49424

$$$$
