CHEMBL3628795


 29 32  0  0  0  0  0  0  0  0999 V2000
  -17.6123    3.3718  -14.8640 N   0  0  0  0  0  0  0  0  0  0  0  0
  -17.4130    3.9970  -14.0990 H   0  0  0  0  0  0  0  0  0  0  0  0
  -16.5463    3.1737  -15.7486 C   0  0  0  0  0  0  0  0  0  0  0  0
  -16.4085    4.0224  -16.7982 N   0  0  0  0  0  0  0  0  0  0  0  0
  -15.4111    3.8548  -17.6649 C   0  0  0  0  0  0  0  0  0  0  0  0
  -14.4658    2.9233  -17.6245 N   0  0  0  0  0  0  0  0  0  0  0  0
  -14.6153    2.0872  -16.5862 C   0  0  0  0  0  0  0  0  0  0  0  0
  -13.4872    0.8339  -16.3551 S   0  0  0  0  0  0  0  0  0  0  0  0
  -14.3154    0.2619  -14.9910 C   0  0  0  0  0  0  0  0  0  0  0  0
  -15.4389    1.0132  -14.6846 C   0  0  0  0  0  0  0  0  0  0  0  0
  -15.6162    2.1114  -15.6208 C   0  0  0  0  0  0  0  0  0  0  0  0
  -16.3209    0.6321  -13.5246 C   0  0  0  0  0  0  0  0  0  0  0  0
  -15.6341   -0.3531  -12.5623 C   0  0  0  0  0  0  0  0  0  0  0  0
  -14.9163   -1.4784  -13.3167 C   0  0  0  0  0  0  0  0  0  0  0  0
  -13.8131   -0.9222  -14.2236 C   0  0  0  0  0  0  0  0  0  0  0  0
  -21.2768    1.2428  -14.6637 C   0  0  0  0  0  0  0  0  0  0  0  0
  -20.0912    0.6517  -15.1233 C   0  0  0  0  0  0  0  0  0  0  0  0
  -18.8864    1.3539  -15.1598 C   0  0  0  0  0  0  0  0  0  0  0  0
  -18.8363    2.6888  -14.7788 C   0  0  0  0  0  0  0  0  0  0  0  0
  -20.0290    3.2906  -14.3491 C   0  0  0  0  0  0  0  0  0  0  0  0
  -21.2465    2.5845  -14.2609 C   0  0  0  0  0  0  0  0  0  0  0  0
  -22.4434    3.3005  -13.6955 C   0  0  0  0  0  0  0  0  0  0  0  0
  -22.9299   -0.2217  -13.5621 C   0  0  0  0  0  0  0  0  0  0  0  0
  -22.4652   -0.2301  -12.4271 O   0  0  0  0  0  0  0  0  0  0  0  0
  -22.4849    0.5114  -14.6256 N   0  0  0  0  0  0  0  0  0  0  0  0
  -23.0771    0.4976  -15.4387 H   0  0  0  0  0  0  0  0  0  0  0  0
  -23.9685   -1.0132  -13.9386 O   0  0  0  0  0  0  0  0  0  0  0  0
  -26.1772   -1.5636  -13.1904 C   0  0  0  0  0  0  0  0  0  0  0  0
  -24.7001   -1.5552  -12.8307 C   0  0  0  0  0  0  0  0  0  0  0  0
 28 29  1  0  0  0
 29 27  1  0  0  0
 27 23  1  0  0  0
 23 24  2  0  0  0
 23 25  1  0  0  0
 25 16  1  0  0  0
 25 26  1  0  0  0
 16 17  1  0  0  0
 16 21  2  0  0  0
 17 18  2  0  0  0
 18 19  1  0  0  0
 19  1  1  0  0  0
 19 20  2  0  0  0
  1  3  1  0  0  0
  1  2  1  0  0  0
  3  4  1  0  0  0
  3 11  2  0  0  0
  4  5  2  0  0  0
  5  6  1  0  0  0
  6  7  2  0  0  0
  7  8  1  0  0  0
  7 11  1  0  0  0
  8  9  1  0  0  0
  9 10  2  0  0  0
  9 15  1  0  0  0
 10 11  1  0  0  0
 10 12  1  0  0  0
 12 13  1  0  0  0
 13 14  1  0  0  0
 14 15  1  0  0  0
 20 21  1  0  0  0
 21 22  1  0  0  0
M  END
> <minimizedAffinity>
-8.42428

$$$$
