CHEMBL402182


 36 42  0  0  0  0  0  0  0  0999 V2000
  -30.2285   -4.7180   -4.8927 N   0  0  0  0  0  0  0  0  0  0  0  0
  -29.6159   -3.5838   -5.5019 C   0  0  0  0  0  0  0  0  0  0  0  0
  -29.8531   -2.1965   -5.3734 C   0  0  0  0  0  0  0  0  0  0  0  0
  -29.1633   -1.3047   -6.2200 C   0  0  0  0  0  0  0  0  0  0  0  0
  -28.2209   -1.7700   -7.1395 C   0  0  0  0  0  0  0  0  0  0  0  0
  -27.9766   -3.1376   -7.2407 C   0  0  0  0  0  0  0  0  0  0  0  0
  -28.7083   -4.0444   -6.4617 C   0  0  0  0  0  0  0  0  0  0  0  0
  -28.9100   -5.4022   -6.4450 C   0  0  0  0  0  0  0  0  0  0  0  0
  -28.5265   -6.2198   -7.5264 C   0  0  0  0  0  0  0  0  0  0  0  0
  -29.1647   -7.4697   -7.5952 C   0  0  0  0  0  0  0  0  0  0  0  0
  -30.0509   -7.9552   -6.6114 C   0  0  0  0  0  0  0  0  0  0  0  0
  -29.8908   -7.2932   -5.3399 C   0  0  0  0  0  0  0  0  0  0  0  0
  -29.6884   -5.8947   -5.4354 C   0  0  0  0  0  0  0  0  0  0  0  0
  -29.0969   -8.2066   -4.3037 C   0  0  0  0  0  0  0  0  0  0  0  0
  -28.4479   -9.5108   -4.9369 C   0  0  0  0  0  0  0  0  0  0  0  0
  -29.5223  -10.1772   -5.7200 C   0  0  0  0  0  0  0  0  0  0  0  0
  -30.0642  -11.3751   -5.5039 N   0  0  0  0  0  0  0  0  0  0  0  0
  -31.2513  -11.2815   -6.1561 N   0  0  0  0  0  0  0  0  0  0  0  0
  -32.2319  -12.3296   -6.0082 C   0  0  0  0  0  0  0  0  0  0  0  0
  -31.4846  -10.0420   -6.7017 C   0  0  0  0  0  0  0  0  0  0  0  0
  -30.3014   -9.3667   -6.5597 C   0  0  0  0  0  0  0  0  0  0  0  0
  -28.6274   -8.1631   -8.7419 C   0  0  0  0  0  0  0  0  0  0  0  0
  -28.8075   -9.2773   -9.2180 O   0  0  0  0  0  0  0  0  0  0  0  0
  -27.7020   -7.2773   -9.2812 N   0  0  0  0  0  0  0  0  0  0  0  0
  -27.6002   -5.9934   -8.6314 C   0  0  0  0  0  0  0  0  0  0  0  0
  -27.1381   -7.5628  -10.0657 H   0  0  0  0  0  0  0  0  0  0  0  0
  -32.0894   -5.9342   -3.7519 C   0  0  0  0  0  0  0  0  0  0  0  0
  -31.4586   -4.5795   -4.0986 C   0  0  0  0  0  0  0  0  0  0  0  0
  -31.3557   -3.6770   -2.8746 C   0  0  0  0  0  0  0  0  0  0  0  0
  -27.5362   -0.9201   -8.1554 C   0  0  0  0  0  0  0  0  0  0  0  0
  -27.0777    0.1491   -7.7466 O   0  0  0  0  0  0  0  0  0  0  0  0
  -27.4518   -1.3397   -9.5410 C   0  0  0  0  0  0  0  0  0  0  0  0
  -28.4425   -1.5568  -10.4786 C   0  0  0  0  0  0  0  0  0  0  0  0
  -27.9125   -1.9396  -11.7456 C   0  0  0  0  0  0  0  0  0  0  0  0
  -26.5375   -1.9879  -11.7408 C   0  0  0  0  0  0  0  0  0  0  0  0
  -25.8904   -1.5633  -10.2226 S   0  0  0  0  0  0  0  0  0  0  0  0
 27 28  1  0  0  0
 28 29  1  0  0  0
 28  1  1  0  0  0
  1  2  1  0  0  0
  1 13  1  0  0  0
  2  3  1  0  0  0
  2  7  2  0  0  0
  3  4  2  0  0  0
  4  5  1  0  0  0
  5 30  1  0  0  0
  5  6  2  0  0  0
 30 31  2  0  0  0
 30 32  1  0  0  0
 32 33  2  0  0  0
 32 36  1  0  0  0
 33 34  1  0  0  0
 34 35  2  0  0  0
 35 36  1  0  0  0
  6  7  1  0  0  0
  7  8  1  0  0  0
  8  9  1  0  0  0
  8 13  2  0  0  0
  9 10  2  0  0  0
  9 25  1  0  0  0
 10 11  1  0  0  0
 10 22  1  0  0  0
 11 12  2  0  0  0
 11 21  1  0  0  0
 12 13  1  0  0  0
 12 14  1  0  0  0
 14 15  1  0  0  0
 15 16  1  0  0  0
 16 17  2  0  0  0
 16 21  1  0  0  0
 17 18  1  0  0  0
 18 19  1  0  0  0
 18 20  1  0  0  0
 20 21  2  0  0  0
 22 23  2  0  0  0
 22 24  1  0  0  0
 24 25  1  0  0  0
 24 26  1  0  0  0
M  END
> <minimizedAffinity>
-6.99755

$$$$
