CHEMBL3971555


 37 40  0  0  0  0  0  0  0  0999 V2000
  -25.8026   -1.6058  -12.2292 C   0  0  0  0  0  0  0  0  0  0  0  0
  -25.7563   -1.4160  -13.6105 C   0  0  0  0  0  0  0  0  0  0  0  0
  -24.6485   -1.0758  -14.3065 N   0  0  0  0  0  0  0  0  0  0  0  0
  -23.4953   -0.9580  -13.6198 C   0  0  0  0  0  0  0  0  0  0  0  0
  -23.4345   -1.1059  -12.2391 C   0  0  0  0  0  0  0  0  0  0  0  0
  -22.2846   -0.9555  -11.5697 F   0  0  0  0  0  0  0  0  0  0  0  0
  -24.6002   -1.4391  -11.5349 C   0  0  0  0  0  0  0  0  0  0  0  0
  -26.1725   -1.6467   -9.3796 O   0  0  0  0  0  0  0  0  0  0  0  0
  -27.0817   -1.9774  -10.1300 C   0  0  0  0  0  0  0  0  0  0  0  0
  -28.2898   -2.4924   -9.6978 N   0  0  0  0  0  0  0  0  0  0  0  0
  -26.9875   -1.9224  -11.5143 N   0  0  0  0  0  0  0  0  0  0  0  0
  -28.8833   -2.9200  -10.3921 H   0  0  0  0  0  0  0  0  0  0  0  0
  -27.8281   -2.0785  -12.0503 H   0  0  0  0  0  0  0  0  0  0  0  0
  -28.6443   -2.7107   -8.3414 C   0  0  0  0  0  0  0  0  0  0  0  0
  -29.3700   -3.8244   -7.9014 C   0  0  0  0  0  0  0  0  0  0  0  0
  -29.7466   -3.9589   -6.5647 C   0  0  0  0  0  0  0  0  0  0  0  0
  -29.3811   -2.9878   -5.6395 C   0  0  0  0  0  0  0  0  0  0  0  0
  -28.6233   -1.8827   -6.0419 C   0  0  0  0  0  0  0  0  0  0  0  0
  -28.2578   -1.7549   -7.3984 C   0  0  0  0  0  0  0  0  0  0  0  0
  -28.1980   -0.8354   -5.0430 C   0  0  0  0  0  0  0  0  0  0  0  0
  -29.1462    0.1128   -4.8069 F   0  0  0  0  0  0  0  0  0  0  0  0
  -27.8957   -1.3732   -3.8296 F   0  0  0  0  0  0  0  0  0  0  0  0
  -27.0839   -0.1603   -5.4400 F   0  0  0  0  0  0  0  0  0  0  0  0
  -22.3328   -0.6981  -14.3389 O   0  0  0  0  0  0  0  0  0  0  0  0
  -21.9124    0.6240  -14.3651 C   0  0  0  0  0  0  0  0  0  0  0  0
  -22.7292    1.6650  -13.9251 C   0  0  0  0  0  0  0  0  0  0  0  0
  -22.2238    2.9428  -13.9636 C   0  0  0  0  0  0  0  0  0  0  0  0
  -21.0083    3.2408  -14.4487 N   0  0  0  0  0  0  0  0  0  0  0  0
  -20.2327    2.2471  -14.9088 C   0  0  0  0  0  0  0  0  0  0  0  0
  -20.6480    0.9147  -14.8889 C   0  0  0  0  0  0  0  0  0  0  0  0
  -18.9632    2.5637  -15.4341 N   0  0  0  0  0  0  0  0  0  0  0  0
  -17.7749    2.1797  -14.8420 C   0  0  0  0  0  0  0  0  0  0  0  0
  -17.6155    1.5245  -13.8221 O   0  0  0  0  0  0  0  0  0  0  0  0
  -18.9310    3.1136  -16.2755 H   0  0  0  0  0  0  0  0  0  0  0  0
  -16.5557    2.6846  -15.5582 C   0  0  0  0  0  0  0  0  0  0  0  0
  -15.8181    1.7826  -16.5286 C   0  0  0  0  0  0  0  0  0  0  0  0
  -15.2069    2.1019  -15.1961 C   0  0  0  0  0  0  0  0  0  0  0  0
  8  9  2  0  0  0
  9 10  1  0  0  0
  9 11  1  0  0  0
 10 14  1  0  0  0
 10 12  1  0  0  0
 14 15  1  0  0  0
 14 19  2  0  0  0
 15 16  2  0  0  0
 16 17  1  0  0  0
 17 18  2  0  0  0
 18 20  1  0  0  0
 18 19  1  0  0  0
 20 21  1  0  0  0
 20 22  1  0  0  0
 20 23  1  0  0  0
 11  1  1  0  0  0
 11 13  1  0  0  0
  1  2  1  0  0  0
  1  7  2  0  0  0
  2  3  2  0  0  0
  3  4  1  0  0  0
  4 24  1  0  0  0
  4  5  2  0  0  0
 24 25  1  0  0  0
 25 26  1  0  0  0
 25 30  2  0  0  0
 26 27  2  0  0  0
 27 28  1  0  0  0
 28 29  2  0  0  0
 29 31  1  0  0  0
 29 30  1  0  0  0
 31 32  1  0  0  0
 31 34  1  0  0  0
 32 33  2  0  0  0
 32 35  1  0  0  0
 35 36  1  0  0  0
 35 37  1  0  0  0
 36 37  1  0  0  0
  5  6  1  0  0  0
  5  7  1  0  0  0
M  END
> <minimizedAffinity>
-11.41568

$$$$
