CHEMBL464620


 26 28  0  0  0  0  0  0  0  0999 V2000
  -28.7316   -6.0084   -4.3522 C   0  0  0  0  0  0  0  0  0  0  0  0
  -29.2487   -6.3163   -3.1107 N   0  0  0  0  0  0  0  0  0  0  0  0
  -29.6587   -7.5760   -3.1311 N   0  0  0  0  0  0  0  0  0  0  0  0
  -29.4142   -8.0573   -4.3597 N   0  0  0  0  0  0  0  0  0  0  0  0
  -28.7720   -7.1449   -5.1553 C   0  0  0  0  0  0  0  0  0  0  0  0
  -29.6580   -9.0159   -4.5741 H   0  0  0  0  0  0  0  0  0  0  0  0
  -27.3121   -4.1555   -4.1917 O   0  0  0  0  0  0  0  0  0  0  0  0
  -28.3021   -4.6617   -4.7050 C   0  0  0  0  0  0  0  0  0  0  0  0
  -29.0970   -4.0159   -5.6416 N   0  0  0  0  0  0  0  0  0  0  0  0
  -29.9534   -4.4922   -5.9063 H   0  0  0  0  0  0  0  0  0  0  0  0
  -28.8694   -2.7074   -6.1306 C   0  0  0  0  0  0  0  0  0  0  0  0
  -28.0061   -2.4314   -7.2002 C   0  0  0  0  0  0  0  0  0  0  0  0
  -27.7416   -1.1209   -7.5982 C   0  0  0  0  0  0  0  0  0  0  0  0
  -28.3524   -0.0637   -6.9378 C   0  0  0  0  0  0  0  0  0  0  0  0
  -29.2478   -0.3283   -5.9038 C   0  0  0  0  0  0  0  0  0  0  0  0
  -30.0051    0.9855   -5.0878 Cl  0  0  0  0  0  0  0  0  0  0  0  0
  -29.5219   -1.6415   -5.5062 C   0  0  0  0  0  0  0  0  0  0  0  0
  -28.3405   -7.5246   -6.3939 N   0  0  0  0  0  0  0  0  0  0  0  0
  -27.9528   -8.4632   -6.5004 H   0  0  0  0  0  0  0  0  0  0  0  0
  -29.0729   -7.1135   -7.5914 C   0  0  0  0  0  0  0  0  0  0  0  0
  -30.3329   -7.9264   -7.7525 C   0  0  0  0  0  0  0  0  0  0  0  0
  -30.2931   -9.1659   -8.3998 C   0  0  0  0  0  0  0  0  0  0  0  0
  -31.4554   -9.9155   -8.4748 C   0  0  0  0  0  0  0  0  0  0  0  0
  -32.6364   -9.5216   -7.9544 N   0  0  0  0  0  0  0  0  0  0  0  0
  -32.6531   -8.3272   -7.3246 C   0  0  0  0  0  0  0  0  0  0  0  0
  -31.5444   -7.5060   -7.1969 C   0  0  0  0  0  0  0  0  0  0  0  0
  7  8  2  0  0  0
  8  9  1  0  0  0
  8  1  1  0  0  0
  9 11  1  0  0  0
  9 10  1  0  0  0
 11 12  1  0  0  0
 11 17  2  0  0  0
 12 13  2  0  0  0
 13 14  1  0  0  0
 14 15  2  0  0  0
 15 16  1  0  0  0
 15 17  1  0  0  0
  1  2  1  0  0  0
  1  5  2  0  0  0
  2  3  2  0  0  0
  3  4  1  0  0  0
  4  5  1  0  0  0
  4  6  1  0  0  0
  5 18  1  0  0  0
 18 20  1  0  0  0
 18 19  1  0  0  0
 20 21  1  0  0  0
 21 22  1  0  0  0
 21 26  2  0  0  0
 22 23  2  0  0  0
 23 24  1  0  0  0
 24 25  2  0  0  0
 25 26  1  0  0  0
M  END
> <minimizedAffinity>
-8.02209

$$$$
