CHEMBL1241680


 24 26  0  0  0  0  0  0  0  0999 V2000
  -29.0035   -2.8902   -6.1212 N   0  0  0  0  0  0  0  0  0  0  0  0
  -28.8447   -3.9243   -6.9787 N   0  0  0  0  0  0  0  0  0  0  0  0
  -29.5331   -4.9380   -6.4175 C   0  0  0  0  0  0  0  0  0  0  0  0
  -30.0866   -4.5505   -5.1556 C   0  0  0  0  0  0  0  0  0  0  0  0
  -30.8231   -5.1163   -4.1019 C   0  0  0  0  0  0  0  0  0  0  0  0
  -31.2063   -6.4478   -4.0100 N   0  0  0  0  0  0  0  0  0  0  0  0
  -31.1858   -4.3314   -3.0681 N   0  0  0  0  0  0  0  0  0  0  0  0
  -30.8096   -3.0393   -3.0759 C   0  0  0  0  0  0  0  0  0  0  0  0
  -30.0800   -2.3988   -4.0017 N   0  0  0  0  0  0  0  0  0  0  0  0
  -29.7505   -3.2127   -5.0196 C   0  0  0  0  0  0  0  0  0  0  0  0
  -30.5464   -7.1093   -4.3969 H   0  0  0  0  0  0  0  0  0  0  0  0
  -31.5268   -6.6597   -3.0705 H   0  0  0  0  0  0  0  0  0  0  0  0
  -29.6322   -6.2302   -7.1094 C   0  0  0  0  0  0  0  0  0  0  0  0
  -28.5345   -6.7689   -7.7958 C   0  0  0  0  0  0  0  0  0  0  0  0
  -28.6347   -7.9790   -8.4856 C   0  0  0  0  0  0  0  0  0  0  0  0
  -29.8210   -8.6962   -8.4306 C   0  0  0  0  0  0  0  0  0  0  0  0
  -29.8857   -9.8768   -9.0643 F   0  0  0  0  0  0  0  0  0  0  0  0
  -30.9132   -8.2104   -7.7169 C   0  0  0  0  0  0  0  0  0  0  0  0
  -30.8238   -6.9715   -7.0685 C   0  0  0  0  0  0  0  0  0  0  0  0
  -32.1132   -8.9837   -7.6386 C   0  0  0  0  0  0  0  0  0  0  0  0
  -33.0951   -9.5921   -7.5683 N   0  0  0  0  0  0  0  0  0  0  0  0
  -27.2932   -1.2823   -5.3437 C   0  0  0  0  0  0  0  0  0  0  0  0
  -28.3665   -1.6020   -6.3847 C   0  0  0  0  0  0  0  0  0  0  0  0
  -27.7937   -1.5131   -7.7991 C   0  0  0  0  0  0  0  0  0  0  0  0
 22 23  1  0  0  0
 23 24  1  0  0  0
 23  1  1  0  0  0
  1  2  1  0  0  0
  1 10  1  0  0  0
  2  3  2  0  0  0
  3 13  1  0  0  0
  3  4  1  0  0  0
 13 14  1  0  0  0
 13 19  2  0  0  0
 14 15  2  0  0  0
 15 16  1  0  0  0
 16 17  1  0  0  0
 16 18  2  0  0  0
 18 20  1  0  0  0
 18 19  1  0  0  0
 20 21  3  0  0  0
  4  5  1  0  0  0
  4 10  2  0  0  0
  5  6  1  0  0  0
  5  7  2  0  0  0
  6 11  1  0  0  0
  6 12  1  0  0  0
  7  8  1  0  0  0
  8  9  2  0  0  0
  9 10  1  0  0  0
M  END
> <minimizedAffinity>
-8.02763

$$$$
