CHEMBL3925474


 38 41  0  0  0  0  0  0  0  0999 V2000
  -14.9461   -3.3225  -11.8177 C   0  0  0  0  0  0  0  0  0  0  0  0
  -15.9720   -4.2699  -11.8401 C   0  0  0  0  0  0  0  0  0  0  0  0
  -15.7123   -5.6186  -11.5594 C   0  0  0  0  0  0  0  0  0  0  0  0
  -14.4153   -6.0523  -11.2704 C   0  0  0  0  0  0  0  0  0  0  0  0
  -13.3701   -5.1210  -11.3205 C   0  0  0  0  0  0  0  0  0  0  0  0
  -11.7029   -5.5666  -11.1915 Cl  0  0  0  0  0  0  0  0  0  0  0  0
  -13.6416   -3.7645  -11.5672 C   0  0  0  0  0  0  0  0  0  0  0  0
  -15.8939   -1.9689  -14.2217 O   0  0  0  0  0  0  0  0  0  0  0  0
  -15.6111   -1.3483  -13.2063 C   0  0  0  0  0  0  0  0  0  0  0  0
  -15.1370   -1.9356  -12.0422 N   0  0  0  0  0  0  0  0  0  0  0  0
  -15.7509    0.0254  -13.0668 N   0  0  0  0  0  0  0  0  0  0  0  0
  -15.0545   -1.3384  -11.2336 H   0  0  0  0  0  0  0  0  0  0  0  0
  -15.2987    0.4513  -12.2707 H   0  0  0  0  0  0  0  0  0  0  0  0
  -16.3566    0.9054  -13.9949 C   0  0  0  0  0  0  0  0  0  0  0  0
  -15.6743    1.4864  -15.0685 C   0  0  0  0  0  0  0  0  0  0  0  0
  -16.3279    2.3462  -15.9532 C   0  0  0  0  0  0  0  0  0  0  0  0
  -17.6757    2.6247  -15.7791 C   0  0  0  0  0  0  0  0  0  0  0  0
  -18.2698    3.4533  -16.6460 F   0  0  0  0  0  0  0  0  0  0  0  0
  -18.3929    2.0550  -14.7332 C   0  0  0  0  0  0  0  0  0  0  0  0
  -17.7235    1.1902  -13.8426 C   0  0  0  0  0  0  0  0  0  0  0  0
  -19.8549    2.3406  -14.5605 C   0  0  0  0  0  0  0  0  0  0  0  0
  -20.6000    2.2833  -15.6959 F   0  0  0  0  0  0  0  0  0  0  0  0
  -20.4413    1.4726  -13.6874 F   0  0  0  0  0  0  0  0  0  0  0  0
  -20.0729    3.5817  -14.0388 F   0  0  0  0  0  0  0  0  0  0  0  0
  -14.2696   -7.4128  -11.0989 O   0  0  0  0  0  0  0  0  0  0  0  0
  -13.7331   -8.1679  -12.1393 C   0  0  0  0  0  0  0  0  0  0  0  0
  -14.1723   -7.8461  -13.4083 C   0  0  0  0  0  0  0  0  0  0  0  0
  -13.5834   -8.5409  -14.4475 C   0  0  0  0  0  0  0  0  0  0  0  0
  -12.6457   -9.4701  -14.2235 N   0  0  0  0  0  0  0  0  0  0  0  0
  -12.3151   -9.7234  -12.9525 C   0  0  0  0  0  0  0  0  0  0  0  0
  -12.8411   -9.1362  -11.8758 N   0  0  0  0  0  0  0  0  0  0  0  0
  -14.0068   -8.2835  -15.7679 N   0  0  0  0  0  0  0  0  0  0  0  0
  -13.1458   -7.9524  -16.7987 C   0  0  0  0  0  0  0  0  0  0  0  0
  -11.9569   -7.6854  -16.6993 O   0  0  0  0  0  0  0  0  0  0  0  0
  -14.9907   -8.3583  -15.9701 H   0  0  0  0  0  0  0  0  0  0  0  0
  -13.7291   -7.8943  -18.1759 C   0  0  0  0  0  0  0  0  0  0  0  0
  -12.9820   -7.4951  -19.4213 C   0  0  0  0  0  0  0  0  0  0  0  0
  -14.0383   -6.5849  -18.8609 C   0  0  0  0  0  0  0  0  0  0  0  0
  8  9  2  0  0  0
  9 10  1  0  0  0
  9 11  1  0  0  0
 10  1  1  0  0  0
 10 12  1  0  0  0
  1  2  1  0  0  0
  1  7  2  0  0  0
  2  3  2  0  0  0
  3  4  1  0  0  0
  4 25  1  0  0  0
  4  5  2  0  0  0
 25 26  1  0  0  0
 26 27  1  0  0  0
 26 31  2  0  0  0
 27 28  2  0  0  0
 28 32  1  0  0  0
 28 29  1  0  0  0
 32 33  1  0  0  0
 32 35  1  0  0  0
 33 34  2  0  0  0
 33 36  1  0  0  0
 36 37  1  0  0  0
 36 38  1  0  0  0
 37 38  1  0  0  0
 29 30  2  0  0  0
 30 31  1  0  0  0
  5  6  1  0  0  0
  5  7  1  0  0  0
 11 14  1  0  0  0
 11 13  1  0  0  0
 14 15  1  0  0  0
 14 20  2  0  0  0
 15 16  2  0  0  0
 16 17  1  0  0  0
 17 18  1  0  0  0
 17 19  2  0  0  0
 19 21  1  0  0  0
 19 20  1  0  0  0
 21 22  1  0  0  0
 21 23  1  0  0  0
 21 24  1  0  0  0
M  END
> <minimizedAffinity>
-8.83638

$$$$
