CHEMBL3221556


 31 33  0  0  0  0  0  0  0  0999 V2000
  -28.4365   -5.9660   -6.1871 N   0  0  0  0  0  0  0  0  0  0  0  0
  -27.4611   -5.9354   -6.5188 H   0  0  0  0  0  0  0  0  0  0  0  0
  -28.9658   -4.8681   -5.4374 C   0  0  0  0  0  0  0  0  0  0  0  0
  -29.6265   -5.1296   -4.2810 N   0  0  0  0  0  0  0  0  0  0  0  0
  -30.1560   -4.1466   -3.5115 C   0  0  0  0  0  0  0  0  0  0  0  0
  -30.0064   -2.8535   -3.8774 N   0  0  0  0  0  0  0  0  0  0  0  0
  -29.3458   -2.5239   -5.0156 C   0  0  0  0  0  0  0  0  0  0  0  0
  -29.1728   -1.1823   -5.3448 C   0  0  0  0  0  0  0  0  0  0  0  0
  -28.4670   -0.7944   -6.5059 C   0  0  0  0  0  0  0  0  0  0  0  0
  -27.9432   -1.8156   -7.3546 C   0  0  0  0  0  0  0  0  0  0  0  0
  -28.1236   -3.1579   -7.0064 C   0  0  0  0  0  0  0  0  0  0  0  0
  -28.8143   -3.5291   -5.8486 C   0  0  0  0  0  0  0  0  0  0  0  0
  -28.2844    0.5260   -6.7931 O   0  0  0  0  0  0  0  0  0  0  0  0
  -29.2536    1.5088   -6.6384 C   0  0  0  0  0  0  0  0  0  0  0  0
  -27.2497   -1.6200   -8.5088 O   0  0  0  0  0  0  0  0  0  0  0  0
  -27.6458   -1.7183   -9.8203 C   0  0  0  0  0  0  0  0  0  0  0  0
  -30.8056   -9.3929   -7.0651 C   0  0  0  0  0  0  0  0  0  0  0  0
  -31.1176   -8.1336   -7.6077 C   0  0  0  0  0  0  0  0  0  0  0  0
  -30.3382   -7.0228   -7.3298 C   0  0  0  0  0  0  0  0  0  0  0  0
  -29.2173   -7.1177   -6.4912 C   0  0  0  0  0  0  0  0  0  0  0  0
  -28.9052   -8.3554   -5.9181 C   0  0  0  0  0  0  0  0  0  0  0  0
  -29.6792   -9.4979   -6.2020 C   0  0  0  0  0  0  0  0  0  0  0  0
  -29.2600  -10.8186   -5.6108 C   0  0  0  0  0  0  0  0  0  0  0  0
  -31.4967  -11.3467   -8.4380 C   0  0  0  0  0  0  0  0  0  0  0  0
  -32.2733  -12.2820   -8.5739 O   0  0  0  0  0  0  0  0  0  0  0  0
  -31.6248  -10.5368   -7.3451 N   0  0  0  0  0  0  0  0  0  0  0  0
  -32.3377  -10.8036   -6.6506 H   0  0  0  0  0  0  0  0  0  0  0  0
  -30.4640  -11.1879   -9.3122 O   0  0  0  0  0  0  0  0  0  0  0  0
  -29.2375  -11.8278   -9.2317 C   0  0  0  0  0  0  0  0  0  0  0  0
  -28.8661  -10.4552  -11.3326 C   0  0  0  0  0  0  0  0  0  0  0  0
  -28.2100  -11.2058  -10.1793 C   0  0  0  0  0  0  0  0  0  0  0  0
 30 31  1  0  0  0
 31 29  1  0  0  0
 29 28  1  0  0  0
 28 24  1  0  0  0
 24 25  2  0  0  0
 24 26  1  0  0  0
 26 17  1  0  0  0
 26 27  1  0  0  0
 17 18  1  0  0  0
 17 22  2  0  0  0
 18 19  2  0  0  0
 19 20  1  0  0  0
 20  1  1  0  0  0
 20 21  2  0  0  0
  1  3  1  0  0  0
  1  2  1  0  0  0
  3  4  1  0  0  0
  3 12  2  0  0  0
  4  5  2  0  0  0
  5  6  1  0  0  0
  6  7  2  0  0  0
  7  8  1  0  0  0
  7 12  1  0  0  0
  8  9  2  0  0  0
  9 13  1  0  0  0
  9 10  1  0  0  0
 13 14  1  0  0  0
 10 15  1  0  0  0
 10 11  2  0  0  0
 15 16  1  0  0  0
 11 12  1  0  0  0
 21 22  1  0  0  0
 22 23  1  0  0  0
M  END
> <minimizedAffinity>
-7.76448

$$$$
