CHEMBL3891816


 38 42  0  0  0  0  0  0  0  0999 V2000
  -27.3947  -10.2637   -4.0601 N   0  0  0  0  0  0  0  0  0  0  0  0
  -27.9920   -8.9295   -4.0996 C   0  0  0  0  0  0  0  0  0  0  0  0
  -27.2687   -7.9679   -4.7380 C   0  0  0  0  0  0  0  0  0  0  0  0
  -27.7572   -6.7053   -4.7754 C   0  0  0  0  0  0  0  0  0  0  0  0
  -28.8189   -6.2563   -4.0841 C   0  0  0  0  0  0  0  0  0  0  0  0
  -28.4183   -5.1586   -3.6117 N   0  0  0  0  0  0  0  0  0  0  0  0
  -28.8293   -4.1802   -4.3659 C   0  0  0  0  0  0  0  0  0  0  0  0
  -30.0157   -3.6341   -4.1432 C   0  0  0  0  0  0  0  0  0  0  0  0
  -30.5554   -5.0770   -3.6759 N   0  0  0  0  0  0  0  0  0  0  0  0
  -29.9094   -6.7197   -3.6047 C   0  0  0  0  0  0  0  0  0  0  0  0
  -29.2853   -8.3836   -3.4990 C   0  0  0  0  0  0  0  0  0  0  0  0
  -29.2582   -2.0685   -4.6804 C   0  0  0  0  0  0  0  0  0  0  0  0
  -27.8171   -1.4913   -4.6757 C   0  0  0  0  0  0  0  0  0  0  0  0
  -27.5892   -0.2700   -5.2485 N   0  0  0  0  0  0  0  0  0  0  0  0
  -28.7674    0.1134   -5.7584 N   0  0  0  0  0  0  0  0  0  0  0  0
  -28.8773    1.4057   -6.5227 C   0  0  0  0  0  0  0  0  0  0  0  0
  -29.7491   -0.9287   -5.4707 C   0  0  0  0  0  0  0  0  0  0  0  0
  -23.7496  -10.3247   -5.3467 C   0  0  0  0  0  0  0  0  0  0  0  0
  -23.1262  -10.8148   -4.2708 C   0  0  0  0  0  0  0  0  0  0  0  0
  -23.8633  -11.1712   -3.1438 C   0  0  0  0  0  0  0  0  0  0  0  0
  -25.2612  -11.0437   -3.0943 C   0  0  0  0  0  0  0  0  0  0  0  0
  -25.9678  -10.4927   -4.1350 C   0  0  0  0  0  0  0  0  0  0  0  0
  -25.1305  -10.3341   -5.2518 C   0  0  0  0  0  0  0  0  0  0  0  0
  -21.8980  -10.4145   -6.8245 C   0  0  0  0  0  0  0  0  0  0  0  0
  -23.1651   -9.8619   -6.4781 O   0  0  0  0  0  0  0  0  0  0  0  0
  -23.2597  -11.6067   -2.0022 O   0  0  0  0  0  0  0  0  0  0  0  0
  -24.1473  -12.2782   -1.1137 C   0  0  0  0  0  0  0  0  0  0  0  0
  -28.2934  -11.3373   -4.7028 C   0  0  0  0  0  0  0  0  0  0  0  0
  -29.0738  -10.7609   -5.9094 C   0  0  0  0  0  0  0  0  0  0  0  0
  -29.6936  -10.3086   -6.8802 C   0  0  0  0  0  0  0  0  0  0  0  0
  -30.4637   -9.7415   -8.0980 C   0  0  0  0  0  0  0  0  0  0  0  0
  -30.7350  -10.8358   -8.9747 O   0  0  0  0  0  0  0  0  0  0  0  0
  -29.6409   -8.6720   -8.8195 C   0  0  0  0  0  0  0  0  0  0  0  0
  -29.5706   -7.4185   -7.9717 C   0  0  0  0  0  0  0  0  0  0  0  0
  -30.8858   -6.9470   -7.6752 O   0  0  0  0  0  0  0  0  0  0  0  0
  -31.6539   -7.9146   -6.9569 C   0  0  0  0  0  0  0  0  0  0  0  0
  -31.8312   -9.1714   -7.7653 C   0  0  0  0  0  0  0  0  0  0  0  0
  -29.8760  -11.2444   -9.1658 H   0  0  0  0  0  0  0  0  0  0  0  0
 24 25  1  0  0  0
 25 18  1  0  0  0
 18 19  1  0  0  0
 18 23  2  0  0  0
 19 20  2  0  0  0
 20 26  1  0  0  0
 20 21  1  0  0  0
 26 27  1  0  0  0
 21 22  2  0  0  0
 22  1  1  0  0  0
 22 23  1  0  0  0
  1 28  1  0  0  0
  1  2  1  0  0  0
 28 29  1  0  0  0
 29 30  3  0  0  0
 30 31  1  0  0  0
 31 32  1  0  0  0
 31 33  1  0  0  0
 31 37  1  0  0  0
 32 38  1  0  0  0
 33 34  1  0  0  0
 34 35  1  0  0  0
 35 36  1  0  0  0
 36 37  1  0  0  0
  2  3  1  0  0  0
  2 11  2  0  0  0
  3  4  2  0  0  0
  4  5  1  0  0  0
  5  6  1  0  0  0
  5 10  2  0  0  0
  6  7  2  0  0  0
  7  8  1  0  0  0
  8 12  1  0  0  0
  8  9  2  0  0  0
 12 13  1  0  0  0
 12 17  2  0  0  0
 13 14  2  0  0  0
 14 15  1  0  0  0
 15 16  1  0  0  0
 15 17  1  0  0  0
  9 10  1  0  0  0
 10 11  1  0  0  0
M  END
> <minimizedAffinity>
-8.85779

$$$$
