CHEMBL2088108


 26 29  0  0  0  0  0  0  0  0999 V2000
  -28.6976   -2.7615   -6.1494 C   0  0  0  0  0  0  0  0  0  0  0  0
  -28.5175   -1.4795   -5.6788 C   0  0  0  0  0  0  0  0  0  0  0  0
  -28.0213   -0.5706   -6.5817 C   0  0  0  0  0  0  0  0  0  0  0  0
  -27.6744   -0.8853   -7.8426 N   0  0  0  0  0  0  0  0  0  0  0  0
  -27.8358   -2.1622   -8.2007 C   0  0  0  0  0  0  0  0  0  0  0  0
  -28.3641   -3.0971   -7.4087 N   0  0  0  0  0  0  0  0  0  0  0  0
  -29.2820   -3.7212   -5.2975 N   0  0  0  0  0  0  0  0  0  0  0  0
  -29.7794   -3.2846   -4.5302 H   0  0  0  0  0  0  0  0  0  0  0  0
  -28.7552   -8.6311   -4.9023 C   0  0  0  0  0  0  0  0  0  0  0  0
  -28.6262   -7.1602   -4.8705 C   0  0  0  0  0  0  0  0  0  0  0  0
  -29.4316   -6.1626   -5.3623 C   0  0  0  0  0  0  0  0  0  0  0  0
  -28.7908   -4.9485   -5.0229 C   0  0  0  0  0  0  0  0  0  0  0  0
  -27.6728   -5.1704   -4.3282 N   0  0  0  0  0  0  0  0  0  0  0  0
  -27.5752   -6.5115   -4.2853 N   0  0  0  0  0  0  0  0  0  0  0  0
  -26.7660   -6.9184   -3.8284 H   0  0  0  0  0  0  0  0  0  0  0  0
  -27.4161   -2.6203   -9.4358 N   0  0  0  0  0  0  0  0  0  0  0  0
  -27.8071   -3.5522   -9.5298 H   0  0  0  0  0  0  0  0  0  0  0  0
  -27.6888   -1.7406  -10.5548 C   0  0  0  0  0  0  0  0  0  0  0  0
  -26.5207   -1.6321  -11.4706 C   0  0  0  0  0  0  0  0  0  0  0  0
  -25.1682   -1.4928  -11.2665 C   0  0  0  0  0  0  0  0  0  0  0  0
  -24.6254   -1.4923  -12.5635 C   0  0  0  0  0  0  0  0  0  0  0  0
  -25.5692   -1.6221  -13.5016 N   0  0  0  0  0  0  0  0  0  0  0  0
  -26.7678   -1.7085  -12.8072 O   0  0  0  0  0  0  0  0  0  0  0  0
  -23.1365   -1.3591  -12.8416 C   0  0  0  0  0  0  0  0  0  0  0  0
  -22.4495   -0.0450  -12.5259 C   0  0  0  0  0  0  0  0  0  0  0  0
  -22.6729   -0.4315  -13.9475 C   0  0  0  0  0  0  0  0  0  0  0  0
  9 10  1  0  0  0
 10 11  2  0  0  0
 10 14  1  0  0  0
 11 12  1  0  0  0
 12  7  1  0  0  0
 12 13  2  0  0  0
  7  1  1  0  0  0
  7  8  1  0  0  0
  1  2  1  0  0  0
  1  6  2  0  0  0
  2  3  2  0  0  0
  3  4  1  0  0  0
  4  5  2  0  0  0
  5 16  1  0  0  0
  5  6  1  0  0  0
 16 18  1  0  0  0
 16 17  1  0  0  0
 18 19  1  0  0  0
 19 20  2  0  0  0
 19 23  1  0  0  0
 20 21  1  0  0  0
 21 24  1  0  0  0
 21 22  2  0  0  0
 24 25  1  0  0  0
 24 26  1  0  0  0
 25 26  1  0  0  0
 22 23  1  0  0  0
 13 14  1  0  0  0
 14 15  1  0  0  0
M  END
> <minimizedAffinity>
-8.21144

$$$$
