CHEMBL444654


 20 22  0  0  0  0  0  0  0  0999 V2000
  -15.9281   -0.2720  -13.1733 C   0  0  0  0  0  0  0  0  0  0  0  0
  -15.8232   -1.5702  -13.5025 C   0  0  0  0  0  0  0  0  0  0  0  0
  -18.3669    1.0309  -15.1067 C   0  0  0  0  0  0  0  0  0  0  0  0
  -16.9189    1.3283  -14.9915 C   0  0  0  0  0  0  0  0  0  0  0  0
  -16.3833    2.3403  -15.7734 N   0  0  0  0  0  0  0  0  0  0  0  0
  -15.1334    2.3701  -15.4149 C   0  0  0  0  0  0  0  0  0  0  0  0
  -13.7584    3.3176  -15.8924 S   0  0  0  0  0  0  0  0  0  0  0  0
  -12.7691    2.3857  -14.7587 C   0  0  0  0  0  0  0  0  0  0  0  0
  -13.4731    1.4544  -14.0923 C   0  0  0  0  0  0  0  0  0  0  0  0
  -14.8047    1.4509  -14.4633 N   0  0  0  0  0  0  0  0  0  0  0  0
  -15.9524    0.7497  -14.1591 C   0  0  0  0  0  0  0  0  0  0  0  0
  -15.8046   -2.6703  -12.5225 C   0  0  0  0  0  0  0  0  0  0  0  0
  -16.2725   -3.9186  -12.8779 C   0  0  0  0  0  0  0  0  0  0  0  0
  -16.2022   -4.8809  -11.9011 C   0  0  0  0  0  0  0  0  0  0  0  0
  -15.7279   -4.6477  -10.6657 N   0  0  0  0  0  0  0  0  0  0  0  0
  -15.3272   -3.4006  -10.4087 C   0  0  0  0  0  0  0  0  0  0  0  0
  -14.8507   -3.1360   -9.1427 N   0  0  0  0  0  0  0  0  0  0  0  0
  -15.3206   -2.4010  -11.2939 N   0  0  0  0  0  0  0  0  0  0  0  0
  -14.5348   -3.9913   -8.7082 H   0  0  0  0  0  0  0  0  0  0  0  0
  -14.2098   -2.3570   -9.1678 H   0  0  0  0  0  0  0  0  0  0  0  0
  3  4  1  0  0  0
  4  5  1  0  0  0
  4 11  2  0  0  0
  5  6  2  0  0  0
  6  7  1  0  0  0
  6 10  1  0  0  0
  7  8  1  0  0  0
  8  9  2  0  0  0
  9 10  1  0  0  0
 10 11  1  0  0  0
 11  1  1  0  0  0
  1  2  2  0  0  0
  2 12  1  0  0  0
 12 13  1  0  0  0
 12 18  2  0  0  0
 13 14  2  0  0  0
 14 15  1  0  0  0
 15 16  2  0  0  0
 16 17  1  0  0  0
 16 18  1  0  0  0
 17 19  1  0  0  0
 17 20  1  0  0  0
M  END
> <minimizedAffinity>
-6.48758

$$$$
