CHEMBL231801


 36 39  0  0  0  0  0  0  0  0999 V2000
  -27.6759  -10.0534   -6.4891 C   0  0  0  0  0  0  0  0  0  0  0  0
  -27.9947   -9.1581   -5.5108 N   0  0  0  0  0  0  0  0  0  0  0  0
  -29.2833   -8.8257   -5.3528 C   0  0  0  0  0  0  0  0  0  0  0  0
  -30.2590   -9.2636   -6.1596 N   0  0  0  0  0  0  0  0  0  0  0  0
  -29.9296  -10.1270   -7.1260 C   0  0  0  0  0  0  0  0  0  0  0  0
  -28.6522  -10.5942   -7.3186 C   0  0  0  0  0  0  0  0  0  0  0  0
  -23.4243  -10.9630   -6.6430 C   0  0  0  0  0  0  0  0  0  0  0  0
  -23.9959  -10.2966   -5.5467 C   0  0  0  0  0  0  0  0  0  0  0  0
  -25.3690  -10.0187   -5.4987 C   0  0  0  0  0  0  0  0  0  0  0  0
  -26.2308  -10.3766   -6.5498 C   0  0  0  0  0  0  0  0  0  0  0  0
  -25.6464  -11.0170   -7.6517 C   0  0  0  0  0  0  0  0  0  0  0  0
  -24.2825  -11.3272   -7.6866 C   0  0  0  0  0  0  0  0  0  0  0  0
  -21.5944  -12.1649   -7.8844 C   0  0  0  0  0  0  0  0  0  0  0  0
  -21.9219  -11.2579   -6.6856 C   0  0  0  0  0  0  0  0  0  0  0  0
  -21.4807  -11.9266   -5.3703 C   0  0  0  0  0  0  0  0  0  0  0  0
  -21.1137  -10.0344   -6.8428 N   0  0  0  0  0  0  0  0  0  0  0  0
  -20.1283  -10.2823   -6.9095 H   0  0  0  0  0  0  0  0  0  0  0  0
  -21.2007   -9.4701   -5.9985 H   0  0  0  0  0  0  0  0  0  0  0  0
  -29.6127   -7.9914   -4.2968 N   0  0  0  0  0  0  0  0  0  0  0  0
  -29.6565   -8.4608   -3.4063 H   0  0  0  0  0  0  0  0  0  0  0  0
  -30.0120   -6.6517   -4.3777 C   0  0  0  0  0  0  0  0  0  0  0  0
  -30.9962   -6.1240   -3.5363 C   0  0  0  0  0  0  0  0  0  0  0  0
  -31.4736   -4.8287   -3.7119 C   0  0  0  0  0  0  0  0  0  0  0  0
  -30.9899   -4.0490   -4.7573 C   0  0  0  0  0  0  0  0  0  0  0  0
  -30.0132   -4.5534   -5.6280 C   0  0  0  0  0  0  0  0  0  0  0  0
  -29.5103   -5.8468   -5.3996 C   0  0  0  0  0  0  0  0  0  0  0  0
  -29.4918   -3.6688   -6.7428 C   0  0  0  0  0  0  0  0  0  0  0  0
  -29.3171   -2.1921   -6.3415 C   0  0  0  0  0  0  0  0  0  0  0  0
  -27.9550   -1.6427   -6.4835 N   0  0  0  0  0  0  0  0  0  0  0  0
  -27.3899   -1.3617   -5.1362 C   0  0  0  0  0  0  0  0  0  0  0  0
  -28.0427   -0.1603   -4.4198 C   0  0  0  0  0  0  0  0  0  0  0  0
  -28.0005    1.0259   -5.2233 O   0  0  0  0  0  0  0  0  0  0  0  0
  -28.5941    0.8059   -6.5092 C   0  0  0  0  0  0  0  0  0  0  0  0
  -27.9204   -0.3684   -7.2399 C   0  0  0  0  0  0  0  0  0  0  0  0
  -28.4441  -11.5944   -8.3055 C   0  0  0  0  0  0  0  0  0  0  0  0
  -28.3168  -12.4035   -9.1255 N   0  0  0  0  0  0  0  0  0  0  0  0
 13 14  1  0  0  0
 14 15  1  0  0  0
 14 16  1  0  0  0
 14  7  1  0  0  0
 16 17  1  0  0  0
 16 18  1  0  0  0
  7  8  1  0  0  0
  7 12  2  0  0  0
  8  9  2  0  0  0
  9 10  1  0  0  0
 10  1  1  0  0  0
 10 11  2  0  0  0
  1  2  1  0  0  0
  1  6  2  0  0  0
  2  3  2  0  0  0
  3 19  1  0  0  0
  3  4  1  0  0  0
 19 21  1  0  0  0
 19 20  1  0  0  0
 21 22  1  0  0  0
 21 26  2  0  0  0
 22 23  2  0  0  0
 23 24  1  0  0  0
 24 25  2  0  0  0
 25 27  1  0  0  0
 25 26  1  0  0  0
 27 28  1  0  0  0
 28 29  1  0  0  0
 29 30  1  0  0  0
 29 34  1  0  0  0
 30 31  1  0  0  0
 31 32  1  0  0  0
 32 33  1  0  0  0
 33 34  1  0  0  0
  4  5  2  0  0  0
  5  6  1  0  0  0
  6 35  1  0  0  0
 35 36  3  0  0  0
 11 12  1  0  0  0
M  END
> <minimizedAffinity>
-8.18581

$$$$
