CHEMBL3966305


 38 42  0  0  0  0  0  0  0  0999 V2000
  -27.0068   -1.6137   -9.8765 C   0  0  0  0  0  0  0  0  0  0  0  0
  -27.7580   -1.9169  -11.0077 C   0  0  0  0  0  0  0  0  0  0  0  0
  -27.2588   -1.8051  -12.2629 C   0  0  0  0  0  0  0  0  0  0  0  0
  -25.9867   -1.3725  -12.4859 C   0  0  0  0  0  0  0  0  0  0  0  0
  -25.5906   -1.4308  -13.7530 N   0  0  0  0  0  0  0  0  0  0  0  0
  -24.3922   -1.0111  -14.1495 C   0  0  0  0  0  0  0  0  0  0  0  0
  -23.5054   -0.4320  -13.2658 C   0  0  0  0  0  0  0  0  0  0  0  0
  -23.8582   -0.4290  -11.8916 N   0  0  0  0  0  0  0  0  0  0  0  0
  -25.1228   -0.9193  -11.4651 C   0  0  0  0  0  0  0  0  0  0  0  0
  -25.6535   -1.0497  -10.0854 C   0  0  0  0  0  0  0  0  0  0  0  0
  -22.2950    0.1893  -14.0330 C   0  0  0  0  0  0  0  0  0  0  0  0
  -21.3918   -0.2350  -15.0212 C   0  0  0  0  0  0  0  0  0  0  0  0
  -20.4775    0.7564  -15.2794 N   0  0  0  0  0  0  0  0  0  0  0  0
  -20.7530    1.8029  -14.5002 N   0  0  0  0  0  0  0  0  0  0  0  0
  -21.8203    1.4926  -13.7460 C   0  0  0  0  0  0  0  0  0  0  0  0
  -19.8984    3.0081  -14.2563 C   0  0  0  0  0  0  0  0  0  0  0  0
  -18.3505    2.9597  -14.4921 C   0  0  0  0  0  0  0  0  0  0  0  0
  -17.9669    3.2040  -15.9557 C   0  0  0  0  0  0  0  0  0  0  0  0
  -16.4807    2.8614  -16.1950 C   0  0  0  0  0  0  0  0  0  0  0  0
  -16.2193    1.5068  -15.8776 O   0  0  0  0  0  0  0  0  0  0  0  0
  -16.3715    1.3188  -14.4852 C   0  0  0  0  0  0  0  0  0  0  0  0
  -17.8385    1.5430  -14.0760 C   0  0  0  0  0  0  0  0  0  0  0  0
  -27.6033   -2.1282   -8.6370 N   0  0  0  0  0  0  0  0  0  0  0  0
  -28.9821    0.4447   -6.1749 C   0  0  0  0  0  0  0  0  0  0  0  0
  -28.7474   -0.2430   -4.9665 C   0  0  0  0  0  0  0  0  0  0  0  0
  -28.1195   -1.4846   -4.9656 C   0  0  0  0  0  0  0  0  0  0  0  0
  -27.7320   -2.0559   -6.1813 C   0  0  0  0  0  0  0  0  0  0  0  0
  -27.9187   -1.4060   -7.4185 C   0  0  0  0  0  0  0  0  0  0  0  0
  -28.5486   -0.1354   -7.4019 C   0  0  0  0  0  0  0  0  0  0  0  0
  -30.9539    1.8374   -6.5801 C   0  0  0  0  0  0  0  0  0  0  0  0
  -29.6382    1.6430   -6.1757 O   0  0  0  0  0  0  0  0  0  0  0  0
  -27.9104   -2.1118   -3.7761 O   0  0  0  0  0  0  0  0  0  0  0  0
  -28.8502   -2.8516   -3.0916 C   0  0  0  0  0  0  0  0  0  0  0  0
  -27.8690   -3.6026   -8.6422 C   0  0  0  0  0  0  0  0  0  0  0  0
  -29.2333   -4.1046   -8.0688 C   0  0  0  0  0  0  0  0  0  0  0  0
  -29.1483   -5.2804   -7.2191 N   0  0  0  0  0  0  0  0  0  0  0  0
  -29.0365   -6.1394   -7.8081 H   0  0  0  0  0  0  0  0  0  0  0  0
  -30.0516   -5.3965   -6.6997 H   0  0  0  0  0  0  0  0  0  0  0  0
 30 31  1  0  0  0
 31 24  1  0  0  0
 24 25  1  0  0  0
 24 29  2  0  0  0
 25 26  2  0  0  0
 26 32  1  0  0  0
 26 27  1  0  0  0
 32 33  1  0  0  0
 27 28  2  0  0  0
 28 23  1  0  0  0
 28 29  1  0  0  0
 23 34  1  0  0  0
 23  1  1  0  0  0
 34 35  1  0  0  0
 35 36  1  0  0  0
 36 37  1  0  0  0
 36 38  1  0  0  0
  1  2  1  0  0  0
  1 10  2  0  0  0
  2  3  2  0  0  0
  3  4  1  0  0  0
  4  5  1  0  0  0
  4  9  2  0  0  0
  5  6  2  0  0  0
  6  7  1  0  0  0
  7 11  1  0  0  0
  7  8  2  0  0  0
 11 12  1  0  0  0
 11 15  2  0  0  0
 12 13  2  0  0  0
 13 14  1  0  0  0
 14 16  1  0  0  0
 14 15  1  0  0  0
 16 17  1  0  0  0
 17 18  1  0  0  0
 17 22  1  0  0  0
 18 19  1  0  0  0
 19 20  1  0  0  0
 20 21  1  0  0  0
 21 22  1  0  0  0
  8  9  1  0  0  0
  9 10  1  0  0  0
M  END
> <minimizedAffinity>
-8.76503

$$$$
