CHEMBL2408617


 27 31  0  0  0  0  0  0  0  0999 V2000
  -29.6871   -9.5466   -8.5653 C   0  0  0  0  0  0  0  0  0  0  0  0
  -30.8900  -10.1858   -8.8602 C   0  0  0  0  0  0  0  0  0  0  0  0
  -32.1171   -9.7935   -8.4251 N   0  0  0  0  0  0  0  0  0  0  0  0
  -32.2261   -8.7076   -7.6239 C   0  0  0  0  0  0  0  0  0  0  0  0
  -33.4852   -8.3505   -7.1714 N   0  0  0  0  0  0  0  0  0  0  0  0
  -31.0536   -8.0028   -7.3278 C   0  0  0  0  0  0  0  0  0  0  0  0
  -30.9596   -6.8706   -6.5638 O   0  0  0  0  0  0  0  0  0  0  0  0
  -29.6469   -6.4831   -6.5575 C   0  0  0  0  0  0  0  0  0  0  0  0
  -28.9117   -7.3767   -7.3098 C   0  0  0  0  0  0  0  0  0  0  0  0
  -29.7980   -8.3801   -7.7880 C   0  0  0  0  0  0  0  0  0  0  0  0
  -34.2124   -8.7674   -7.7397 H   0  0  0  0  0  0  0  0  0  0  0  0
  -33.5857   -7.3736   -6.9310 H   0  0  0  0  0  0  0  0  0  0  0  0
  -29.0956   -5.2726   -5.8640 C   0  0  0  0  0  0  0  0  0  0  0  0
  -28.9831   -5.2086   -4.4910 C   0  0  0  0  0  0  0  0  0  0  0  0
  -28.2869   -3.7506   -3.9582 S   0  0  0  0  0  0  0  0  0  0  0  0
  -28.1478   -3.1519   -5.5637 C   0  0  0  0  0  0  0  0  0  0  0  0
  -27.6285   -1.9144   -5.9478 C   0  0  0  0  0  0  0  0  0  0  0  0
  -27.5994   -1.5645   -7.2523 N   0  0  0  0  0  0  0  0  0  0  0  0
  -28.0738   -2.4308   -8.1655 C   0  0  0  0  0  0  0  0  0  0  0  0
  -28.5905   -3.6798   -7.8627 C   0  0  0  0  0  0  0  0  0  0  0  0
  -28.6303   -4.0688   -6.5065 C   0  0  0  0  0  0  0  0  0  0  0  0
  -25.2048  -11.6923   -8.6133 C   0  0  0  0  0  0  0  0  0  0  0  0
  -26.4084  -10.9863   -8.9796 N   0  0  0  0  0  0  0  0  0  0  0  0
  -27.5071  -10.7519   -8.1996 C   0  0  0  0  0  0  0  0  0  0  0  0
  -28.3870  -10.0288   -8.9790 C   0  0  0  0  0  0  0  0  0  0  0  0
  -27.6969   -9.8674  -10.2050 C   0  0  0  0  0  0  0  0  0  0  0  0
  -26.5065  -10.4666  -10.2140 N   0  0  0  0  0  0  0  0  0  0  0  0
 22 23  1  0  0  0
 23 24  1  0  0  0
 23 27  1  0  0  0
 24 25  2  0  0  0
 25  1  1  0  0  0
 25 26  1  0  0  0
  1  2  1  0  0  0
  1 10  2  0  0  0
  2  3  2  0  0  0
  3  4  1  0  0  0
  4  5  1  0  0  0
  4  6  2  0  0  0
  5 11  1  0  0  0
  5 12  1  0  0  0
  6  7  1  0  0  0
  6 10  1  0  0  0
  7  8  1  0  0  0
  8 13  1  0  0  0
  8  9  2  0  0  0
 13 14  2  0  0  0
 13 21  1  0  0  0
 14 15  1  0  0  0
 15 16  1  0  0  0
 16 17  1  0  0  0
 16 21  2  0  0  0
 17 18  2  0  0  0
 18 19  1  0  0  0
 19 20  2  0  0  0
 20 21  1  0  0  0
  9 10  1  0  0  0
 26 27  2  0  0  0
M  END
> <minimizedAffinity>
-8.58008

$$$$
