CHEMBL1645476


 29 32  0  0  0  0  0  0  0  0999 V2000
  -29.6557  -10.7419   -5.6770 C   0  0  0  0  0  0  0  0  0  0  0  0
  -30.0630  -12.1009   -5.9182 C   0  0  0  0  0  0  0  0  0  0  0  0
  -31.2021  -12.0796   -6.6872 C   0  0  0  0  0  0  0  0  0  0  0  0
  -31.5427  -10.7765   -6.8870 N   0  0  0  0  0  0  0  0  0  0  0  0
  -32.6904  -10.3673   -7.4519 N   0  0  0  0  0  0  0  0  0  0  0  0
  -32.7964   -9.0843   -7.5467 C   0  0  0  0  0  0  0  0  0  0  0  0
  -31.8449   -8.1621   -7.2125 N   0  0  0  0  0  0  0  0  0  0  0  0
  -30.7109   -8.5453   -6.6979 C   0  0  0  0  0  0  0  0  0  0  0  0
  -30.5555   -9.9566   -6.4134 C   0  0  0  0  0  0  0  0  0  0  0  0
  -29.7016   -7.6256   -6.5347 N   0  0  0  0  0  0  0  0  0  0  0  0
  -28.7623   -7.9795   -6.4322 H   0  0  0  0  0  0  0  0  0  0  0  0
  -29.8469   -6.2333   -6.3771 C   0  0  0  0  0  0  0  0  0  0  0  0
  -29.5263   -5.3264   -7.3994 C   0  0  0  0  0  0  0  0  0  0  0  0
  -29.6919   -3.9493   -7.2216 C   0  0  0  0  0  0  0  0  0  0  0  0
  -30.1399   -3.4667   -5.9986 C   0  0  0  0  0  0  0  0  0  0  0  0
  -30.2754   -2.1421   -5.8380 F   0  0  0  0  0  0  0  0  0  0  0  0
  -30.4399   -4.3466   -4.9634 C   0  0  0  0  0  0  0  0  0  0  0  0
  -30.9935   -3.7551   -3.4429 Cl  0  0  0  0  0  0  0  0  0  0  0  0
  -30.3007   -5.7258   -5.1521 C   0  0  0  0  0  0  0  0  0  0  0  0
  -28.4727  -10.3735   -4.8096 C   0  0  0  0  0  0  0  0  0  0  0  0
  -23.7608   -9.2917   -5.4484 N   0  0  0  0  0  0  0  0  0  0  0  0
  -24.7128  -10.1477   -4.7408 C   0  0  0  0  0  0  0  0  0  0  0  0
  -25.5519  -10.9273   -5.7446 C   0  0  0  0  0  0  0  0  0  0  0  0
  -26.6152  -10.0750   -6.4348 C   0  0  0  0  0  0  0  0  0  0  0  0
  -27.5460   -9.4463   -5.4888 N   0  0  0  0  0  0  0  0  0  0  0  0
  -26.7594   -8.6164   -4.5482 C   0  0  0  0  0  0  0  0  0  0  0  0
  -25.6439   -9.3680   -3.8025 C   0  0  0  0  0  0  0  0  0  0  0  0
  -23.2854   -9.8353   -6.1690 H   0  0  0  0  0  0  0  0  0  0  0  0
  -23.0258   -8.9937   -4.8060 H   0  0  0  0  0  0  0  0  0  0  0  0
 21 22  1  0  0  0
 21 28  1  0  0  0
 21 29  1  0  0  0
 22 23  1  0  0  0
 22 27  1  0  0  0
 23 24  1  0  0  0
 24 25  1  0  0  0
 25 20  1  0  0  0
 25 26  1  0  0  0
 20  1  1  0  0  0
  1  2  1  0  0  0
  1  9  2  0  0  0
  2  3  2  0  0  0
  3  4  1  0  0  0
  4  5  1  0  0  0
  4  9  1  0  0  0
  5  6  2  0  0  0
  6  7  1  0  0  0
  7  8  2  0  0  0
  8 10  1  0  0  0
  8  9  1  0  0  0
 10 12  1  0  0  0
 10 11  1  0  0  0
 12 13  1  0  0  0
 12 19  2  0  0  0
 13 14  2  0  0  0
 14 15  1  0  0  0
 15 16  1  0  0  0
 15 17  2  0  0  0
 17 18  1  0  0  0
 17 19  1  0  0  0
 26 27  1  0  0  0
M  END
> <minimizedAffinity>
-7.56333

$$$$
