CHEMBL274064


 28 31  0  0  0  0  0  0  0  0999 V2000
  -28.7131   -7.5319   -5.9387 C   0  0  0  0  0  0  0  0  0  0  0  0
  -28.8579   -7.3690   -7.3230 C   0  0  0  0  0  0  0  0  0  0  0  0
  -29.1987   -6.0787   -7.6427 N   0  0  0  0  0  0  0  0  0  0  0  0
  -29.3001   -5.4543   -6.5005 C   0  0  0  0  0  0  0  0  0  0  0  0
  -29.0200   -6.2649   -5.4348 N   0  0  0  0  0  0  0  0  0  0  0  0
  -30.0409  -11.3180   -3.5315 N   0  0  0  0  0  0  0  0  0  0  0  0
  -28.9986  -10.5627   -4.0175 C   0  0  0  0  0  0  0  0  0  0  0  0
  -27.7654  -10.9080   -3.6461 N   0  0  0  0  0  0  0  0  0  0  0  0
  -26.7802  -10.0870   -4.0332 C   0  0  0  0  0  0  0  0  0  0  0  0
  -26.9917   -8.9460   -4.7674 C   0  0  0  0  0  0  0  0  0  0  0  0
  -28.2883   -8.7100   -5.1646 C   0  0  0  0  0  0  0  0  0  0  0  0
  -29.2942   -9.5300   -4.8084 N   0  0  0  0  0  0  0  0  0  0  0  0
  -29.7338  -12.2511   -3.3040 H   0  0  0  0  0  0  0  0  0  0  0  0
  -30.8635  -11.2038   -4.1056 H   0  0  0  0  0  0  0  0  0  0  0  0
  -28.6939   -8.3615   -8.3766 C   0  0  0  0  0  0  0  0  0  0  0  0
  -27.4738   -8.5378   -9.0448 C   0  0  0  0  0  0  0  0  0  0  0  0
  -27.3518   -9.4746  -10.0721 C   0  0  0  0  0  0  0  0  0  0  0  0
  -28.4441  -10.2673  -10.4063 C   0  0  0  0  0  0  0  0  0  0  0  0
  -28.3267  -11.1643  -11.3923 F   0  0  0  0  0  0  0  0  0  0  0  0
  -29.6482  -10.1494   -9.7246 C   0  0  0  0  0  0  0  0  0  0  0  0
  -29.7726   -9.1976   -8.7096 C   0  0  0  0  0  0  0  0  0  0  0  0
  -29.0458   -5.8501   -4.0309 C   0  0  0  0  0  0  0  0  0  0  0  0
  -30.3007   -6.3560   -3.3010 C   0  0  0  0  0  0  0  0  0  0  0  0
  -31.5051   -5.4495   -3.5056 C   0  0  0  0  0  0  0  0  0  0  0  0
  -31.2140   -4.0765   -3.1055 N   0  0  0  0  0  0  0  0  0  0  0  0
  -30.0951   -3.5034   -3.8437 C   0  0  0  0  0  0  0  0  0  0  0  0
  -28.8267   -4.3505   -3.7573 C   0  0  0  0  0  0  0  0  0  0  0  0
  -31.0269   -4.0387   -2.1046 H   0  0  0  0  0  0  0  0  0  0  0  0
  6  7  1  0  0  0
  6 13  1  0  0  0
  6 14  1  0  0  0
  7  8  1  0  0  0
  7 12  2  0  0  0
  8  9  2  0  0  0
  9 10  1  0  0  0
 10 11  2  0  0  0
 11  1  1  0  0  0
 11 12  1  0  0  0
  1  2  2  0  0  0
  1  5  1  0  0  0
  2 15  1  0  0  0
  2  3  1  0  0  0
 15 16  1  0  0  0
 15 21  2  0  0  0
 16 17  2  0  0  0
 17 18  1  0  0  0
 18 19  1  0  0  0
 18 20  2  0  0  0
 20 21  1  0  0  0
  3  4  2  0  0  0
  4  5  1  0  0  0
  5 22  1  0  0  0
 22 23  1  0  0  0
 22 27  1  0  0  0
 23 24  1  0  0  0
 24 25  1  0  0  0
 25 26  1  0  0  0
 25 28  1  0  0  0
 26 27  1  0  0  0
M  END
> <minimizedAffinity>
-7.74946

$$$$
