CHEMBL2430248


 36 40  0  0  0  0  0  0  0  0999 V2000
  -16.2716   -3.5847  -11.9903 C   0  0  0  0  0  0  0  0  0  0  0  0
  -15.1293   -2.7725  -12.4912 C   0  0  0  0  0  0  0  0  0  0  0  0
  -15.3687   -1.6410  -13.2686 N   0  0  0  0  0  0  0  0  0  0  0  0
  -14.1901   -1.0269  -13.5965 C   0  0  0  0  0  0  0  0  0  0  0  0
  -13.1848   -1.7802  -13.0232 C   0  0  0  0  0  0  0  0  0  0  0  0
  -13.7499   -2.9029  -12.3295 C   0  0  0  0  0  0  0  0  0  0  0  0
  -11.7345   -1.4642  -13.1142 C   0  0  0  0  0  0  0  0  0  0  0  0
  -11.3858   -0.2289  -13.9156 C   0  0  0  0  0  0  0  0  0  0  0  0
  -12.5194    0.5753  -14.5471 C   0  0  0  0  0  0  0  0  0  0  0  0
  -13.9815    0.1619  -14.3739 C   0  0  0  0  0  0  0  0  0  0  0  0
  -14.9230    0.9463  -14.9664 C   0  0  0  0  0  0  0  0  0  0  0  0
  -16.4349    0.7942  -14.9672 C   0  0  0  0  0  0  0  0  0  0  0  0
  -17.1132   -0.0645  -14.4352 O   0  0  0  0  0  0  0  0  0  0  0  0
  -16.9254    1.8555  -15.7154 N   0  0  0  0  0  0  0  0  0  0  0  0
  -15.9082    2.6677  -16.1965 C   0  0  0  0  0  0  0  0  0  0  0  0
  -16.0625    3.8033  -16.9707 C   0  0  0  0  0  0  0  0  0  0  0  0
  -14.9105    4.4933  -17.3600 C   0  0  0  0  0  0  0  0  0  0  0  0
  -13.6611    4.0255  -16.9611 C   0  0  0  0  0  0  0  0  0  0  0  0
  -12.5576    4.6892  -17.3300 F   0  0  0  0  0  0  0  0  0  0  0  0
  -13.5262    2.8824  -16.1778 C   0  0  0  0  0  0  0  0  0  0  0  0
  -14.6618    2.1831  -15.7824 C   0  0  0  0  0  0  0  0  0  0  0  0
  -16.2917   -1.3126  -13.5431 H   0  0  0  0  0  0  0  0  0  0  0  0
  -17.9116    1.9983  -15.8778 H   0  0  0  0  0  0  0  0  0  0  0  0
  -12.9170   -3.8939  -11.6170 C   0  0  0  0  0  0  0  0  0  0  0  0
  -12.4440   -3.6556  -10.5048 O   0  0  0  0  0  0  0  0  0  0  0  0
  -12.6881   -5.1189  -12.2053 N   0  0  0  0  0  0  0  0  0  0  0  0
  -13.1750   -5.3533  -13.0529 H   0  0  0  0  0  0  0  0  0  0  0  0
  -12.0600   -6.1807  -11.4298 C   0  0  0  0  0  0  0  0  0  0  0  0
  -12.6207   -7.5400  -11.8463 C   0  0  0  0  0  0  0  0  0  0  0  0
  -12.2598   -7.9489  -13.2814 C   0  0  0  0  0  0  0  0  0  0  0  0
  -13.4005   -8.6031  -13.9514 N   0  0  0  0  0  0  0  0  0  0  0  0
  -13.2161   -8.7696  -15.4121 C   0  0  0  0  0  0  0  0  0  0  0  0
  -13.3110   -7.4509  -16.1913 C   0  0  0  0  0  0  0  0  0  0  0  0
  -14.5981   -6.8518  -16.0019 O   0  0  0  0  0  0  0  0  0  0  0  0
  -14.8530   -6.6107  -14.6122 C   0  0  0  0  0  0  0  0  0  0  0  0
  -14.6737   -7.8752  -13.7473 C   0  0  0  0  0  0  0  0  0  0  0  0
  1  2  1  0  0  0
  2  3  1  0  0  0
  2  6  2  0  0  0
  3  4  1  0  0  0
  3 22  1  0  0  0
  4  5  2  0  0  0
  4 10  1  0  0  0
  5  6  1  0  0  0
  5  7  1  0  0  0
  6 24  1  0  0  0
 24 25  2  0  0  0
 24 26  1  0  0  0
 26 28  1  0  0  0
 26 27  1  0  0  0
 28 29  1  0  0  0
 29 30  1  0  0  0
 30 31  1  0  0  0
 31 32  1  0  0  0
 31 36  1  0  0  0
 32 33  1  0  0  0
 33 34  1  0  0  0
 34 35  1  0  0  0
 35 36  1  0  0  0
  7  8  1  0  0  0
  8  9  1  0  0  0
  9 10  1  0  0  0
 10 11  2  0  0  0
 11 12  1  0  0  0
 11 21  1  0  0  0
 12 13  2  0  0  0
 12 14  1  0  0  0
 14 15  1  0  0  0
 14 23  1  0  0  0
 15 16  1  0  0  0
 15 21  2  0  0  0
 16 17  2  0  0  0
 17 18  1  0  0  0
 18 19  1  0  0  0
 18 20  2  0  0  0
 20 21  1  0  0  0
M  END
> <minimizedAffinity>
-7.08005

$$$$
