CHEMBL4794496


 43 48  0  0  0  0  0  0  0  0999 V2000
  -28.8107   -8.9808   -5.7641 C   0  0  0  0  0  0  0  0  0  0  0  0
  -28.0298   -7.8876   -5.3790 C   0  0  0  0  0  0  0  0  0  0  0  0
  -28.4851   -6.5739   -5.5919 C   0  0  0  0  0  0  0  0  0  0  0  0
  -29.7239   -6.3290   -6.2043 C   0  0  0  0  0  0  0  0  0  0  0  0
  -30.5164   -7.4345   -6.5295 C   0  0  0  0  0  0  0  0  0  0  0  0
  -30.0547   -8.7362   -6.3469 C   0  0  0  0  0  0  0  0  0  0  0  0
  -30.8252   -9.7386   -6.7977 F   0  0  0  0  0  0  0  0  0  0  0  0
  -30.1088   -5.0093   -6.5293 N   0  0  0  0  0  0  0  0  0  0  0  0
  -30.9963   -4.9281   -7.0255 H   0  0  0  0  0  0  0  0  0  0  0  0
  -29.8061   -3.8200   -5.8179 C   0  0  0  0  0  0  0  0  0  0  0  0
  -30.2066   -3.7211   -4.5263 N   0  0  0  0  0  0  0  0  0  0  0  0
  -29.8686   -2.6366   -3.8005 C   0  0  0  0  0  0  0  0  0  0  0  0
  -29.1317   -1.5875   -4.2962 C   0  0  0  0  0  0  0  0  0  0  0  0
  -28.7319   -1.6477   -5.6277 C   0  0  0  0  0  0  0  0  0  0  0  0
  -27.9430   -0.6228   -6.1698 N   0  0  0  0  0  0  0  0  0  0  0  0
  -27.5345   -0.6649   -7.4731 C   0  0  0  0  0  0  0  0  0  0  0  0
  -27.7974   -1.6684   -8.3272 C   0  0  0  0  0  0  0  0  0  0  0  0
  -28.6416   -2.8013   -7.8241 C   0  0  0  0  0  0  0  0  0  0  0  0
  -29.0158   -3.6980   -8.5751 O   0  0  0  0  0  0  0  0  0  0  0  0
  -29.0577   -2.7833   -6.3961 C   0  0  0  0  0  0  0  0  0  0  0  0
  -27.8465    0.2492   -5.6588 H   0  0  0  0  0  0  0  0  0  0  0  0
  -27.3295   -1.6102   -9.7135 C   0  0  0  0  0  0  0  0  0  0  0  0
  -25.9580   -1.6183  -10.0048 C   0  0  0  0  0  0  0  0  0  0  0  0
  -25.5245   -1.5840  -11.3320 C   0  0  0  0  0  0  0  0  0  0  0  0
  -26.4608   -1.5360  -12.3589 C   0  0  0  0  0  0  0  0  0  0  0  0
  -26.0439   -1.5150  -13.6315 F   0  0  0  0  0  0  0  0  0  0  0  0
  -27.8232   -1.5124  -12.0853 C   0  0  0  0  0  0  0  0  0  0  0  0
  -28.2598   -1.5472  -10.7604 C   0  0  0  0  0  0  0  0  0  0  0  0
  -28.2384  -10.2299   -5.6216 O   0  0  0  0  0  0  0  0  0  0  0  0
  -23.2359  -10.9602   -6.1283 C   0  0  0  0  0  0  0  0  0  0  0  0
  -23.8964  -11.2793   -7.3279 C   0  0  0  0  0  0  0  0  0  0  0  0
  -25.2735  -11.1909   -7.4748 C   0  0  0  0  0  0  0  0  0  0  0  0
  -25.8019  -11.4291   -8.6808 N   0  0  0  0  0  0  0  0  0  0  0  0
  -27.1289  -11.2896   -8.8025 C   0  0  0  0  0  0  0  0  0  0  0  0
  -27.9775  -10.9519   -7.8325 N   0  0  0  0  0  0  0  0  0  0  0  0
  -27.4073  -10.6801   -6.6414 C   0  0  0  0  0  0  0  0  0  0  0  0
  -26.0391  -10.8233   -6.3699 C   0  0  0  0  0  0  0  0  0  0  0  0
  -25.3984  -10.6122   -5.1231 C   0  0  0  0  0  0  0  0  0  0  0  0
  -24.0018  -10.6710   -4.9934 C   0  0  0  0  0  0  0  0  0  0  0  0
  -21.1907  -10.3499   -7.1637 C   0  0  0  0  0  0  0  0  0  0  0  0
  -21.8664  -10.9515   -6.0552 O   0  0  0  0  0  0  0  0  0  0  0  0
  -23.5899  -10.4093   -3.7158 O   0  0  0  0  0  0  0  0  0  0  0  0
  -23.3547  -11.4859   -2.8215 C   0  0  0  0  0  0  0  0  0  0  0  0
 40 41  1  0  0  0
 41 30  1  0  0  0
 30 31  1  0  0  0
 30 39  2  0  0  0
 31 32  2  0  0  0
 32 33  1  0  0  0
 32 37  1  0  0  0
 33 34  2  0  0  0
 34 35  1  0  0  0
 35 36  2  0  0  0
 36 29  1  0  0  0
 36 37  1  0  0  0
 29  1  1  0  0  0
  1  2  1  0  0  0
  1  6  2  0  0  0
  2  3  2  0  0  0
  3  4  1  0  0  0
  4  8  1  0  0  0
  4  5  2  0  0  0
  8 10  1  0  0  0
  8  9  1  0  0  0
 10 11  1  0  0  0
 10 20  2  0  0  0
 11 12  2  0  0  0
 12 13  1  0  0  0
 13 14  2  0  0  0
 14 15  1  0  0  0
 14 20  1  0  0  0
 15 16  1  0  0  0
 15 21  1  0  0  0
 16 17  2  0  0  0
 17 22  1  0  0  0
 17 18  1  0  0  0
 22 23  1  0  0  0
 22 28  2  0  0  0
 23 24  2  0  0  0
 24 25  1  0  0  0
 25 26  1  0  0  0
 25 27  2  0  0  0
 27 28  1  0  0  0
 18 19  2  0  0  0
 18 20  1  0  0  0
  5  6  1  0  0  0
  6  7  1  0  0  0
 37 38  2  0  0  0
 38 39  1  0  0  0
 39 42  1  0  0  0
 42 43  1  0  0  0
M  END
> <minimizedAffinity>
-9.68807

$$$$
