CHEMBL258695


 31 35  0  0  0  0  0  0  0  0999 V2000
  -29.4933   -7.6220   -4.7127 C   0  0  0  0  0  0  0  0  0  0  0  0
  -28.6958   -8.3739   -3.8882 C   0  0  0  0  0  0  0  0  0  0  0  0
  -28.4654   -9.5642   -4.4991 N   0  0  0  0  0  0  0  0  0  0  0  0
  -27.7685  -10.5555   -3.9299 N   0  0  0  0  0  0  0  0  0  0  0  0
  -27.6176  -11.5891   -4.6864 C   0  0  0  0  0  0  0  0  0  0  0  0
  -28.0712  -11.7236   -5.9639 N   0  0  0  0  0  0  0  0  0  0  0  0
  -28.7786  -10.7818   -6.5235 C   0  0  0  0  0  0  0  0  0  0  0  0
  -29.0433   -9.5872   -5.7457 C   0  0  0  0  0  0  0  0  0  0  0  0
  -29.7215   -8.3709   -5.9319 C   0  0  0  0  0  0  0  0  0  0  0  0
  -29.7270   -2.7994   -3.8381 C   0  0  0  0  0  0  0  0  0  0  0  0
  -30.1304   -4.2146   -3.9149 C   0  0  0  0  0  0  0  0  0  0  0  0
  -31.4037   -4.6108   -3.8449 N   0  0  0  0  0  0  0  0  0  0  0  0
  -31.3182   -5.9810   -4.1060 O   0  0  0  0  0  0  0  0  0  0  0  0
  -29.9889   -6.2713   -4.3039 C   0  0  0  0  0  0  0  0  0  0  0  0
  -29.2250   -5.2093   -4.1537 N   0  0  0  0  0  0  0  0  0  0  0  0
  -30.4798   -7.7802   -7.1145 C   0  0  0  0  0  0  0  0  0  0  0  0
  -31.9895   -7.9704   -6.9537 C   0  0  0  0  0  0  0  0  0  0  0  0
  -30.1552   -6.3517   -7.5275 C   0  0  0  0  0  0  0  0  0  0  0  0
  -29.2608  -10.9872   -7.7998 N   0  0  0  0  0  0  0  0  0  0  0  0
  -29.5308  -11.9521   -7.9431 H   0  0  0  0  0  0  0  0  0  0  0  0
  -28.6553  -10.4399   -8.9575 C   0  0  0  0  0  0  0  0  0  0  0  0
  -27.4674   -9.6957   -8.9075 C   0  0  0  0  0  0  0  0  0  0  0  0
  -26.8090   -9.1450   -9.9623 N   0  0  0  0  0  0  0  0  0  0  0  0
  -27.4070   -9.4055  -11.1333 C   0  0  0  0  0  0  0  0  0  0  0  0
  -26.9172   -9.0332  -12.3545 N   0  0  0  0  0  0  0  0  0  0  0  0
  -27.7167   -9.5366  -13.3547 C   0  0  0  0  0  0  0  0  0  0  0  0
  -27.3653   -9.4234  -14.7919 C   0  0  0  0  0  0  0  0  0  0  0  0
  -28.7987  -10.1466  -12.7460 C   0  0  0  0  0  0  0  0  0  0  0  0
  -28.5913  -10.1016  -11.3405 C   0  0  0  0  0  0  0  0  0  0  0  0
  -29.2579  -10.6050  -10.2105 C   0  0  0  0  0  0  0  0  0  0  0  0
  -26.0566   -8.5210  -12.4729 H   0  0  0  0  0  0  0  0  0  0  0  0
 10 11  1  0  0  0
 11 12  2  0  0  0
 11 15  1  0  0  0
 12 13  1  0  0  0
 13 14  1  0  0  0
 14  1  1  0  0  0
 14 15  2  0  0  0
  1  2  2  0  0  0
  1  9  1  0  0  0
  2  3  1  0  0  0
  3  4  1  0  0  0
  3  8  1  0  0  0
  4  5  2  0  0  0
  5  6  1  0  0  0
  6  7  2  0  0  0
  7 19  1  0  0  0
  7  8  1  0  0  0
 19 21  1  0  0  0
 19 20  1  0  0  0
 21 22  1  0  0  0
 21 30  2  0  0  0
 22 23  2  0  0  0
 23 24  1  0  0  0
 24 25  1  0  0  0
 24 29  2  0  0  0
 25 26  1  0  0  0
 25 31  1  0  0  0
 26 27  1  0  0  0
 26 28  2  0  0  0
 28 29  1  0  0  0
 29 30  1  0  0  0
  8  9  2  0  0  0
  9 16  1  0  0  0
 16 17  1  0  0  0
 16 18  1  0  0  0
M  END
> <minimizedAffinity>
-8.22905

$$$$
