CHEMBL3780136


 40 44  0  0  0  0  0  0  0  0999 V2000
  -28.5867   -1.8359   -9.6974 N   0  0  0  0  0  0  0  0  0  0  0  0
  -29.2256   -2.4308  -10.2150 H   0  0  0  0  0  0  0  0  0  0  0  0
  -28.0532   -3.4356   -5.8564 C   0  0  0  0  0  0  0  0  0  0  0  0
  -28.2490   -4.2257   -6.9304 N   0  0  0  0  0  0  0  0  0  0  0  0
  -28.4527   -3.6756   -8.1670 N   0  0  0  0  0  0  0  0  0  0  0  0
  -28.4753   -2.3382   -8.3563 C   0  0  0  0  0  0  0  0  0  0  0  0
  -28.3009   -1.4646   -7.2559 C   0  0  0  0  0  0  0  0  0  0  0  0
  -28.3009   -0.0488   -7.3567 C   0  0  0  0  0  0  0  0  0  0  0  0
  -28.1706    0.7748   -6.2406 C   0  0  0  0  0  0  0  0  0  0  0  0
  -28.0304    0.2117   -4.9795 C   0  0  0  0  0  0  0  0  0  0  0  0
  -27.9981   -1.1757   -4.8454 C   0  0  0  0  0  0  0  0  0  0  0  0
  -28.1218   -2.0357   -5.9619 C   0  0  0  0  0  0  0  0  0  0  0  0
  -27.6198   -4.1696   -4.6036 C   0  0  0  0  0  0  0  0  0  0  0  0
  -28.9622   -8.2175   -3.7942 C   0  0  0  0  0  0  0  0  0  0  0  0
  -27.7151   -8.0012   -4.3782 C   0  0  0  0  0  0  0  0  0  0  0  0
  -27.2791   -6.7013   -4.6710 C   0  0  0  0  0  0  0  0  0  0  0  0
  -28.0898   -5.5938   -4.3967 C   0  0  0  0  0  0  0  0  0  0  0  0
  -29.3338   -5.8188   -3.7837 C   0  0  0  0  0  0  0  0  0  0  0  0
  -29.7654   -7.1159   -3.4916 C   0  0  0  0  0  0  0  0  0  0  0  0
  -28.7053  -10.5768   -3.7376 C   0  0  0  0  0  0  0  0  0  0  0  0
  -29.5002   -9.4293   -3.4620 O   0  0  0  0  0  0  0  0  0  0  0  0
  -27.4547   -1.6517  -10.5423 C   0  0  0  0  0  0  0  0  0  0  0  0
  -26.1645   -1.6478  -10.0152 C   0  0  0  0  0  0  0  0  0  0  0  0
  -25.0464   -1.5268  -10.8384 C   0  0  0  0  0  0  0  0  0  0  0  0
  -25.1698   -1.4367  -12.2246 C   0  0  0  0  0  0  0  0  0  0  0  0
  -26.4575   -1.5147  -12.7710 C   0  0  0  0  0  0  0  0  0  0  0  0
  -27.5882   -1.6391  -11.9352 C   0  0  0  0  0  0  0  0  0  0  0  0
  -24.0554   -1.2401  -13.0797 N   0  0  0  0  0  0  0  0  0  0  0  0
  -23.2696   -0.0980  -13.1195 C   0  0  0  0  0  0  0  0  0  0  0  0
  -23.3428    0.8358  -12.3282 O   0  0  0  0  0  0  0  0  0  0  0  0
  -22.3956   -0.0925  -14.2007 N   0  0  0  0  0  0  0  0  0  0  0  0
  -23.7620   -2.0215  -13.6492 H   0  0  0  0  0  0  0  0  0  0  0  0
  -22.7625   -0.5303  -15.0339 H   0  0  0  0  0  0  0  0  0  0  0  0
  -21.5367    1.0212  -14.3971 C   0  0  0  0  0  0  0  0  0  0  0  0
  -22.0153    2.3340  -14.2918 C   0  0  0  0  0  0  0  0  0  0  0  0
  -21.1894    3.4193  -14.5862 C   0  0  0  0  0  0  0  0  0  0  0  0
  -19.8777    3.1971  -14.9949 C   0  0  0  0  0  0  0  0  0  0  0  0
  -19.3931    1.8916  -15.0762 C   0  0  0  0  0  0  0  0  0  0  0  0
  -17.7845    1.6205  -15.6296 Cl  0  0  0  0  0  0  0  0  0  0  0  0
  -20.2068    0.8013  -14.7532 C   0  0  0  0  0  0  0  0  0  0  0  0
 20 21  1  0  0  0
 21 14  1  0  0  0
 14 15  1  0  0  0
 14 19  2  0  0  0
 15 16  2  0  0  0
 16 17  1  0  0  0
 17 13  1  0  0  0
 17 18  2  0  0  0
 13  3  1  0  0  0
  3  4  1  0  0  0
  3 12  2  0  0  0
  4  5  2  0  0  0
  5  6  1  0  0  0
  6  1  1  0  0  0
  6  7  2  0  0  0
  1 22  1  0  0  0
  1  2  1  0  0  0
 22 23  1  0  0  0
 22 27  2  0  0  0
 23 24  2  0  0  0
 24 25  1  0  0  0
 25 28  1  0  0  0
 25 26  2  0  0  0
 28 29  1  0  0  0
 28 32  1  0  0  0
 29 30  2  0  0  0
 29 31  1  0  0  0
 31 34  1  0  0  0
 31 33  1  0  0  0
 34 35  1  0  0  0
 34 40  2  0  0  0
 35 36  2  0  0  0
 36 37  1  0  0  0
 37 38  2  0  0  0
 38 39  1  0  0  0
 38 40  1  0  0  0
 26 27  1  0  0  0
  7  8  1  0  0  0
  7 12  1  0  0  0
  8  9  2  0  0  0
  9 10  1  0  0  0
 10 11  2  0  0  0
 11 12  1  0  0  0
 18 19  1  0  0  0
M  END
> <minimizedAffinity>
-10.22137

$$$$
