CHEMBL3894710


 46 50  0  0  0  0  0  0  0  0999 V2000
  -29.8769   -4.5575   -7.6707 N   0  0  0  0  0  0  0  0  0  0  0  0
  -29.3837   -5.7771   -7.2387 C   0  0  0  0  0  0  0  0  0  0  0  0
  -28.2011   -6.0346   -7.0434 O   0  0  0  0  0  0  0  0  0  0  0  0
  -30.3577   -6.7574   -7.0746 N   0  0  0  0  0  0  0  0  0  0  0  0
  -30.8568   -4.4880   -7.9008 H   0  0  0  0  0  0  0  0  0  0  0  0
  -31.0836   -6.7410   -7.7745 H   0  0  0  0  0  0  0  0  0  0  0  0
  -29.9402   -8.0415   -6.6180 C   0  0  0  0  0  0  0  0  0  0  0  0
  -29.5280   -8.2327   -5.2901 C   0  0  0  0  0  0  0  0  0  0  0  0
  -29.0227   -9.4648   -4.8605 C   0  0  0  0  0  0  0  0  0  0  0  0
  -28.9742  -10.5519   -5.7433 C   0  0  0  0  0  0  0  0  0  0  0  0
  -29.3639  -10.3434   -7.0695 C   0  0  0  0  0  0  0  0  0  0  0  0
  -29.2465  -11.3362   -7.9649 F   0  0  0  0  0  0  0  0  0  0  0  0
  -29.8647   -9.1091   -7.5086 C   0  0  0  0  0  0  0  0  0  0  0  0
  -28.5013  -11.8016   -5.3899 O   0  0  0  0  0  0  0  0  0  0  0  0
  -27.3394  -11.9193   -4.6459 C   0  0  0  0  0  0  0  0  0  0  0  0
  -27.3315  -12.0939   -3.2659 C   0  0  0  0  0  0  0  0  0  0  0  0
  -26.1139  -12.1273   -2.6268 C   0  0  0  0  0  0  0  0  0  0  0  0
  -24.9394  -12.0798   -3.2714 N   0  0  0  0  0  0  0  0  0  0  0  0
  -24.9354  -12.0002   -4.6115 C   0  0  0  0  0  0  0  0  0  0  0  0
  -26.1213  -11.9117   -5.3402 C   0  0  0  0  0  0  0  0  0  0  0  0
  -23.6989  -12.0252   -5.2858 N   0  0  0  0  0  0  0  0  0  0  0  0
  -22.9896  -10.8819   -5.6209 C   0  0  0  0  0  0  0  0  0  0  0  0
  -23.3230   -9.7168   -5.4666 O   0  0  0  0  0  0  0  0  0  0  0  0
  -23.2985  -12.9220   -5.4970 H   0  0  0  0  0  0  0  0  0  0  0  0
  -21.6411  -11.1652   -6.2059 C   0  0  0  0  0  0  0  0  0  0  0  0
  -21.0846  -10.1901   -7.2195 C   0  0  0  0  0  0  0  0  0  0  0  0
  -21.5005  -11.5588   -7.6649 C   0  0  0  0  0  0  0  0  0  0  0  0
  -27.6641   -2.1109   -9.4731 C   0  0  0  0  0  0  0  0  0  0  0  0
  -28.3954   -3.2553   -9.1347 C   0  0  0  0  0  0  0  0  0  0  0  0
  -29.0600   -3.4149   -7.9197 C   0  0  0  0  0  0  0  0  0  0  0  0
  -28.8882   -2.4218   -6.9490 C   0  0  0  0  0  0  0  0  0  0  0  0
  -28.0996   -1.2808   -7.2290 C   0  0  0  0  0  0  0  0  0  0  0  0
  -27.5360   -1.1154   -8.5081 C   0  0  0  0  0  0  0  0  0  0  0  0
  -27.7735   -0.2441   -6.1839 C   0  0  0  0  0  0  0  0  0  0  0  0
  -27.4631    0.9796   -6.7015 F   0  0  0  0  0  0  0  0  0  0  0  0
  -28.8202   -0.0287   -5.3365 F   0  0  0  0  0  0  0  0  0  0  0  0
  -26.7237   -0.5947   -5.3926 F   0  0  0  0  0  0  0  0  0  0  0  0
  -27.9986   -1.4517  -11.9038 C   0  0  0  0  0  0  0  0  0  0  0  0
  -27.0396   -2.0558  -10.8633 C   0  0  0  0  0  0  0  0  0  0  0  0
  -25.6912   -1.4541  -10.9172 N   0  0  0  0  0  0  0  0  0  0  0  0
  -24.6308   -2.3603  -11.3771 C   0  0  0  0  0  0  0  0  0  0  0  0
  -23.2402   -1.6838  -11.3647 C   0  0  0  0  0  0  0  0  0  0  0  0
  -23.1548   -0.4324  -12.1415 N   0  0  0  0  0  0  0  0  0  0  0  0
  -23.2258   -0.6943  -13.5789 C   0  0  0  0  0  0  0  0  0  0  0  0
  -24.2379    0.4682  -11.6966 C   0  0  0  0  0  0  0  0  0  0  0  0
  -25.6461   -0.1776  -11.6644 C   0  0  0  0  0  0  0  0  0  0  0  0
 38 39  1  0  0  0
 39 28  1  0  0  0
 39 40  1  0  0  0
 28 29  1  0  0  0
 28 33  2  0  0  0
 29 30  2  0  0  0
 30  1  1  0  0  0
 30 31  1  0  0  0
  1  2  1  0  0  0
  1  5  1  0  0  0
  2  3  2  0  0  0
  2  4  1  0  0  0
  4  7  1  0  0  0
  4  6  1  0  0  0
  7  8  1  0  0  0
  7 13  2  0  0  0
  8  9  2  0  0  0
  9 10  1  0  0  0
 10 14  1  0  0  0
 10 11  2  0  0  0
 14 15  1  0  0  0
 15 16  1  0  0  0
 15 20  2  0  0  0
 16 17  2  0  0  0
 17 18  1  0  0  0
 18 19  2  0  0  0
 19 21  1  0  0  0
 19 20  1  0  0  0
 21 22  1  0  0  0
 21 24  1  0  0  0
 22 23  2  0  0  0
 22 25  1  0  0  0
 25 26  1  0  0  0
 25 27  1  0  0  0
 26 27  1  0  0  0
 11 12  1  0  0  0
 11 13  1  0  0  0
 31 32  2  0  0  0
 32 34  1  0  0  0
 32 33  1  0  0  0
 34 35  1  0  0  0
 34 36  1  0  0  0
 34 37  1  0  0  0
 40 41  1  0  0  0
 40 46  1  0  0  0
 41 42  1  0  0  0
 42 43  1  0  0  0
 43 44  1  0  0  0
 43 45  1  0  0  0
 45 46  1  0  0  0
M  END
> <minimizedAffinity>
-8.58630

$$$$
