CHEMBL257479


 32 35  0  0  0  0  0  0  0  0999 V2000
  -21.6734    1.2778  -14.4820 C   0  0  0  0  0  0  0  0  0  0  0  0
  -21.7226   -0.1181  -14.3927 C   0  0  0  0  0  0  0  0  0  0  0  0
  -22.7496   -0.7532  -13.6873 C   0  0  0  0  0  0  0  0  0  0  0  0
  -23.7419   -0.0194  -13.0152 C   0  0  0  0  0  0  0  0  0  0  0  0
  -23.5814    1.3768  -12.9904 C   0  0  0  0  0  0  0  0  0  0  0  0
  -22.5751    2.0229  -13.7279 C   0  0  0  0  0  0  0  0  0  0  0  0
  -24.8938   -0.7058  -12.3906 C   0  0  0  0  0  0  0  0  0  0  0  0
  -24.9577   -0.9083  -10.9933 C   0  0  0  0  0  0  0  0  0  0  0  0
  -26.0261   -1.5869  -10.4207 C   0  0  0  0  0  0  0  0  0  0  0  0
  -27.0773   -2.0892  -11.0927 N   0  0  0  0  0  0  0  0  0  0  0  0
  -26.9890   -1.8859  -12.4194 C   0  0  0  0  0  0  0  0  0  0  0  0
  -27.9174   -2.2926  -13.3281 N   0  0  0  0  0  0  0  0  0  0  0  0
  -27.5991   -2.0067  -14.5986 N   0  0  0  0  0  0  0  0  0  0  0  0
  -26.4165   -1.4019  -14.4929 C   0  0  0  0  0  0  0  0  0  0  0  0
  -25.7519   -1.0185  -15.5956 N   0  0  0  0  0  0  0  0  0  0  0  0
  -25.9784   -1.2488  -13.1360 C   0  0  0  0  0  0  0  0  0  0  0  0
  -28.7816   -2.7802  -13.1313 H   0  0  0  0  0  0  0  0  0  0  0  0
  -26.1422   -1.3599  -16.4680 H   0  0  0  0  0  0  0  0  0  0  0  0
  -24.7378   -1.0505  -15.5872 H   0  0  0  0  0  0  0  0  0  0  0  0
  -18.7001    2.7149  -15.9965 N   0  0  0  0  0  0  0  0  0  0  0  0
  -19.4353    2.0665  -15.0186 C   0  0  0  0  0  0  0  0  0  0  0  0
  -18.9754    1.6218  -13.9727 O   0  0  0  0  0  0  0  0  0  0  0  0
  -20.7786    1.9302  -15.3633 N   0  0  0  0  0  0  0  0  0  0  0  0
  -19.2193    3.2313  -16.6909 H   0  0  0  0  0  0  0  0  0  0  0  0
  -20.9492    1.7984  -16.3498 H   0  0  0  0  0  0  0  0  0  0  0  0
  -14.2260    0.5827  -15.9317 C   0  0  0  0  0  0  0  0  0  0  0  0
  -15.0836    1.8138  -15.9593 C   0  0  0  0  0  0  0  0  0  0  0  0
  -14.4789    3.0749  -15.9703 C   0  0  0  0  0  0  0  0  0  0  0  0
  -15.2636    4.2207  -15.9881 C   0  0  0  0  0  0  0  0  0  0  0  0
  -16.6547    4.1155  -15.9918 C   0  0  0  0  0  0  0  0  0  0  0  0
  -17.2907    2.8688  -15.9929 C   0  0  0  0  0  0  0  0  0  0  0  0
  -16.4890    1.7176  -15.9694 C   0  0  0  0  0  0  0  0  0  0  0  0
 26 27  1  0  0  0
 27 28  1  0  0  0
 27 32  2  0  0  0
 28 29  2  0  0  0
 29 30  1  0  0  0
 30 31  2  0  0  0
 31 20  1  0  0  0
 31 32  1  0  0  0
 20 21  1  0  0  0
 20 24  1  0  0  0
 21 22  2  0  0  0
 21 23  1  0  0  0
 23  1  1  0  0  0
 23 25  1  0  0  0
  1  2  1  0  0  0
  1  6  2  0  0  0
  2  3  2  0  0  0
  3  4  1  0  0  0
  4  7  1  0  0  0
  4  5  2  0  0  0
  7  8  1  0  0  0
  7 16  2  0  0  0
  8  9  2  0  0  0
  9 10  1  0  0  0
 10 11  2  0  0  0
 11 12  1  0  0  0
 11 16  1  0  0  0
 12 13  1  0  0  0
 12 17  1  0  0  0
 13 14  2  0  0  0
 14 15  1  0  0  0
 14 16  1  0  0  0
 15 18  1  0  0  0
 15 19  1  0  0  0
  5  6  1  0  0  0
M  END
> <minimizedAffinity>
-9.67877

$$$$
