CHEMBL2023231


 38 42  0  0  0  0  0  0  0  0999 V2000
  -25.3836   -0.7181  -12.7027 C   0  0  0  0  0  0  0  0  0  0  0  0
  -24.9497   -1.2458  -13.9191 C   0  0  0  0  0  0  0  0  0  0  0  0
  -23.7089   -0.8876  -14.4408 C   0  0  0  0  0  0  0  0  0  0  0  0
  -22.8927    0.0452  -13.7850 C   0  0  0  0  0  0  0  0  0  0  0  0
  -23.3901    0.6573  -12.6299 C   0  0  0  0  0  0  0  0  0  0  0  0
  -24.6259    0.2682  -12.0780 C   0  0  0  0  0  0  0  0  0  0  0  0
  -21.5599    0.3541  -14.3295 C   0  0  0  0  0  0  0  0  0  0  0  0
  -20.7606   -0.7027  -14.7144 C   0  0  0  0  0  0  0  0  0  0  0  0
  -19.2226   -0.2326  -15.2113 S   0  0  0  0  0  0  0  0  0  0  0  0
  -19.5788    1.4517  -15.0522 C   0  0  0  0  0  0  0  0  0  0  0  0
  -18.7278    2.5395  -15.3575 C   0  0  0  0  0  0  0  0  0  0  0  0
  -19.2578    3.7905  -15.0914 C   0  0  0  0  0  0  0  0  0  0  0  0
  -20.4726    4.0194  -14.5654 N   0  0  0  0  0  0  0  0  0  0  0  0
  -21.2820    2.9852  -14.2660 C   0  0  0  0  0  0  0  0  0  0  0  0
  -22.4838    3.3727  -13.6859 N   0  0  0  0  0  0  0  0  0  0  0  0
  -20.8768    1.6425  -14.5214 C   0  0  0  0  0  0  0  0  0  0  0  0
  -22.4182    4.3554  -13.4390 H   0  0  0  0  0  0  0  0  0  0  0  0
  -22.7758    2.7655  -12.9300 H   0  0  0  0  0  0  0  0  0  0  0  0
  -17.3990    2.3808  -15.9269 C   0  0  0  0  0  0  0  0  0  0  0  0
  -16.5177    1.2733  -15.9866 C   0  0  0  0  0  0  0  0  0  0  0  0
  -15.3883    1.5375  -16.6481 N   0  0  0  0  0  0  0  0  0  0  0  0
  -15.5421    2.8123  -17.0340 N   0  0  0  0  0  0  0  0  0  0  0  0
  -14.5346    3.4456  -17.8493 C   0  0  0  0  0  0  0  0  0  0  0  0
  -16.7205    3.3663  -16.6205 C   0  0  0  0  0  0  0  0  0  0  0  0
  -27.6969   -2.0614  -10.2560 N   0  0  0  0  0  0  0  0  0  0  0  0
  -26.4800   -1.6220  -10.7381 C   0  0  0  0  0  0  0  0  0  0  0  0
  -25.4518   -1.5413  -10.0711 O   0  0  0  0  0  0  0  0  0  0  0  0
  -26.5463   -1.2186  -12.0656 N   0  0  0  0  0  0  0  0  0  0  0  0
  -28.4049   -2.2964  -10.9385 H   0  0  0  0  0  0  0  0  0  0  0  0
  -27.4252   -0.8024  -12.3381 H   0  0  0  0  0  0  0  0  0  0  0  0
  -28.4496   -2.8969   -6.1715 C   0  0  0  0  0  0  0  0  0  0  0  0
  -28.6223   -3.8907   -7.1228 C   0  0  0  0  0  0  0  0  0  0  0  0
  -28.3847   -3.6233   -8.4683 C   0  0  0  0  0  0  0  0  0  0  0  0
  -27.9775   -2.3596   -8.9013 C   0  0  0  0  0  0  0  0  0  0  0  0
  -27.8116   -1.3557   -7.9461 C   0  0  0  0  0  0  0  0  0  0  0  0
  -28.0462   -1.6278   -6.5876 C   0  0  0  0  0  0  0  0  0  0  0  0
  -27.9064   -4.1091   -4.2084 C   0  0  0  0  0  0  0  0  0  0  0  0
  -28.6424   -3.0551   -4.8218 O   0  0  0  0  0  0  0  0  0  0  0  0
 37 38  1  0  0  0
 38 31  1  0  0  0
 31 32  1  0  0  0
 31 36  2  0  0  0
 32 33  2  0  0  0
 33 34  1  0  0  0
 34 25  1  0  0  0
 34 35  2  0  0  0
 25 26  1  0  0  0
 25 29  1  0  0  0
 26 27  2  0  0  0
 26 28  1  0  0  0
 28  1  1  0  0  0
 28 30  1  0  0  0
  1  2  1  0  0  0
  1  6  2  0  0  0
  2  3  2  0  0  0
  3  4  1  0  0  0
  4  7  1  0  0  0
  4  5  2  0  0  0
  7  8  2  0  0  0
  7 16  1  0  0  0
  8  9  1  0  0  0
  9 10  1  0  0  0
 10 11  1  0  0  0
 10 16  2  0  0  0
 11 19  1  0  0  0
 11 12  2  0  0  0
 19 20  1  0  0  0
 19 24  2  0  0  0
 20 21  2  0  0  0
 21 22  1  0  0  0
 22 23  1  0  0  0
 22 24  1  0  0  0
 12 13  1  0  0  0
 13 14  2  0  0  0
 14 15  1  0  0  0
 14 16  1  0  0  0
 15 17  1  0  0  0
 15 18  1  0  0  0
  5  6  1  0  0  0
 35 36  1  0  0  0
M  END
> <minimizedAffinity>
-9.79593

$$$$
