CHEMBL3920254


 36 39  0  0  0  0  0  0  0  0999 V2000
  -27.5099    9.9031  -16.4019 C   0  0  0  0  0  0  0  0  0  0  0  0
  -26.1914   10.1402  -16.7824 C   0  0  0  0  0  0  0  0  0  0  0  0
  -25.3747   11.0346  -16.0623 C   0  0  0  0  0  0  0  0  0  0  0  0
  -24.0088   11.2217  -16.3125 C   0  0  0  0  0  0  0  0  0  0  0  0
  -23.2531   12.0199  -15.5408 N   0  0  0  0  0  0  0  0  0  0  0  0
  -23.8719   12.6570  -14.5426 C   0  0  0  0  0  0  0  0  0  0  0  0
  -25.1727   12.5794  -14.2427 N   0  0  0  0  0  0  0  0  0  0  0  0
  -25.9113   11.7586  -14.9938 C   0  0  0  0  0  0  0  0  0  0  0  0
  -27.2567   11.5838  -14.6858 C   0  0  0  0  0  0  0  0  0  0  0  0
  -28.0606   10.6488  -15.3499 C   0  0  0  0  0  0  0  0  0  0  0  0
  -27.5168    8.0853  -17.9178 C   0  0  0  0  0  0  0  0  0  0  0  0
  -28.2597    8.9816  -17.0870 O   0  0  0  0  0  0  0  0  0  0  0  0
  -23.3986   10.5258  -17.3960 N   0  0  0  0  0  0  0  0  0  0  0  0
  -24.1054   10.2708  -18.0756 H   0  0  0  0  0  0  0  0  0  0  0  0
  -22.1714   10.8952  -17.9939 C   0  0  0  0  0  0  0  0  0  0  0  0
  -20.9743   10.7996  -17.2653 C   0  0  0  0  0  0  0  0  0  0  0  0
  -19.7474   11.2156  -17.7904 C   0  0  0  0  0  0  0  0  0  0  0  0
  -19.7778   11.7339  -19.0782 C   0  0  0  0  0  0  0  0  0  0  0  0
  -18.7046   12.2318  -19.7512 O   0  0  0  0  0  0  0  0  0  0  0  0
  -19.1609   12.6488  -20.9637 C   0  0  0  0  0  0  0  0  0  0  0  0
  -20.5067   12.4078  -21.0839 C   0  0  0  0  0  0  0  0  0  0  0  0
  -20.9248   11.8225  -19.8584 C   0  0  0  0  0  0  0  0  0  0  0  0
  -22.1462   11.3747  -19.3177 C   0  0  0  0  0  0  0  0  0  0  0  0
  -29.3328   10.5611  -14.8286 O   0  0  0  0  0  0  0  0  0  0  0  0
  -29.4327   10.8456  -13.4388 C   0  0  0  0  0  0  0  0  0  0  0  0
  -30.1949   12.1425  -13.1830 C   0  0  0  0  0  0  0  0  0  0  0  0
  -30.8567   12.0219  -11.8082 C   0  0  0  0  0  0  0  0  0  0  0  0
  -32.3662   12.2009  -11.8521 C   0  0  0  0  0  0  0  0  0  0  0  0
  -33.0574   11.1564  -10.9700 C   0  0  0  0  0  0  0  0  0  0  0  0
  -34.3676   10.7068  -11.6042 C   0  0  0  0  0  0  0  0  0  0  0  0
  -34.3587    9.2518  -12.0126 C   0  0  0  0  0  0  0  0  0  0  0  0
  -33.3523    8.5916  -12.2605 O   0  0  0  0  0  0  0  0  0  0  0  0
  -35.6252    8.7093  -12.0703 N   0  0  0  0  0  0  0  0  0  0  0  0
  -35.7021    7.3790  -12.5433 O   0  0  0  0  0  0  0  0  0  0  0  0
  -36.4588    9.2769  -12.1769 H   0  0  0  0  0  0  0  0  0  0  0  0
  -34.7561    7.1446  -12.6639 H   0  0  0  0  0  0  0  0  0  0  0  0
 11 12  1  0  0  0
 12  1  1  0  0  0
  1  2  1  0  0  0
  1 10  2  0  0  0
  2  3  2  0  0  0
  3  4  1  0  0  0
  3  8  1  0  0  0
  4 13  1  0  0  0
  4  5  2  0  0  0
 13 15  1  0  0  0
 13 14  1  0  0  0
 15 16  1  0  0  0
 15 23  2  0  0  0
 16 17  2  0  0  0
 17 18  1  0  0  0
 18 19  1  0  0  0
 18 22  2  0  0  0
 19 20  1  0  0  0
 20 21  2  0  0  0
 21 22  1  0  0  0
 22 23  1  0  0  0
  5  6  1  0  0  0
  6  7  2  0  0  0
  7  8  1  0  0  0
  8  9  2  0  0  0
  9 10  1  0  0  0
 10 24  1  0  0  0
 24 25  1  0  0  0
 25 26  1  0  0  0
 26 27  1  0  0  0
 27 28  1  0  0  0
 28 29  1  0  0  0
 29 30  1  0  0  0
 30 31  1  0  0  0
 31 32  2  0  0  0
 31 33  1  0  0  0
 33 34  1  0  0  0
 33 35  1  0  0  0
 34 36  1  0  0  0
M  END
> <minimizedAffinity>
-2.61475

$$$$
