CHEMBL3884319


 31 35  0  0  0  0  0  0  0  0999 V2000
  -11.8761    2.5758  -12.7595 C   0  0  0  0  0  0  0  0  0  0  0  0
  -12.2623    1.5988  -13.8583 C   0  0  0  0  0  0  0  0  0  0  0  0
  -11.1643    1.4662  -14.9234 C   0  0  0  0  0  0  0  0  0  0  0  0
  -12.5107    0.1744  -13.3238 C   0  0  0  0  0  0  0  0  0  0  0  0
  -11.7499   -0.4450  -12.5974 O   0  0  0  0  0  0  0  0  0  0  0  0
  -13.6695   -0.2873  -13.9477 N   0  0  0  0  0  0  0  0  0  0  0  0
  -14.3425    0.7677  -14.5758 C   0  0  0  0  0  0  0  0  0  0  0  0
  -15.5411    0.7125  -15.1449 N   0  0  0  0  0  0  0  0  0  0  0  0
  -16.0183    1.8810  -15.6171 C   0  0  0  0  0  0  0  0  0  0  0  0
  -15.3421    3.0499  -15.5684 N   0  0  0  0  0  0  0  0  0  0  0  0
  -14.1090    3.0374  -15.0294 C   0  0  0  0  0  0  0  0  0  0  0  0
  -13.5746    1.9021  -14.5013 C   0  0  0  0  0  0  0  0  0  0  0  0
  -14.1242   -1.6609  -14.0048 C   0  0  0  0  0  0  0  0  0  0  0  0
  -13.0129   -2.6385  -14.4685 C   0  0  0  0  0  0  0  0  0  0  0  0
  -12.5787   -3.4870  -13.2634 C   0  0  0  0  0  0  0  0  0  0  0  0
  -13.6776   -3.2712  -12.2755 C   0  0  0  0  0  0  0  0  0  0  0  0
  -13.8985   -3.9274  -11.0759 C   0  0  0  0  0  0  0  0  0  0  0  0
  -13.0764   -4.9092  -10.6135 O   0  0  0  0  0  0  0  0  0  0  0  0
  -14.9998   -3.5817  -10.2986 C   0  0  0  0  0  0  0  0  0  0  0  0
  -15.8732   -2.5714  -10.7237 C   0  0  0  0  0  0  0  0  0  0  0  0
  -15.6443   -1.8954  -11.9241 C   0  0  0  0  0  0  0  0  0  0  0  0
  -14.5367   -2.2449  -12.6860 C   0  0  0  0  0  0  0  0  0  0  0  0
  -12.2938   -4.9472  -11.1870 H   0  0  0  0  0  0  0  0  0  0  0  0
  -17.3039    1.9445  -16.1476 N   0  0  0  0  0  0  0  0  0  0  0  0
  -17.3294    1.6578  -17.1099 H   0  0  0  0  0  0  0  0  0  0  0  0
  -18.5317    2.0312  -15.4821 C   0  0  0  0  0  0  0  0  0  0  0  0
  -19.2484    0.8641  -15.1929 C   0  0  0  0  0  0  0  0  0  0  0  0
  -20.5196    0.9297  -14.6100 C   0  0  0  0  0  0  0  0  0  0  0  0
  -21.0827    2.1645  -14.2988 C   0  0  0  0  0  0  0  0  0  0  0  0
  -20.3778    3.3337  -14.5685 C   0  0  0  0  0  0  0  0  0  0  0  0
  -19.1181    3.2633  -15.1640 C   0  0  0  0  0  0  0  0  0  0  0  0
  1  2  1  0  0  0
  2  3  1  0  0  0
  2  4  1  0  0  0
  2 12  1  0  0  0
  4  5  2  0  0  0
  4  6  1  0  0  0
  6 13  1  0  0  0
  6  7  1  0  0  0
 13 14  1  0  0  0
 13 22  1  0  0  0
 14 15  1  0  0  0
 15 16  1  0  0  0
 16 17  1  0  0  0
 16 22  2  0  0  0
 17 18  1  0  0  0
 17 19  2  0  0  0
 18 23  1  0  0  0
 19 20  1  0  0  0
 20 21  2  0  0  0
 21 22  1  0  0  0
  7  8  1  0  0  0
  7 12  2  0  0  0
  8  9  2  0  0  0
  9 24  1  0  0  0
  9 10  1  0  0  0
 24 26  1  0  0  0
 24 25  1  0  0  0
 26 27  1  0  0  0
 26 31  2  0  0  0
 27 28  2  0  0  0
 28 29  1  0  0  0
 29 30  2  0  0  0
 30 31  1  0  0  0
 10 11  2  0  0  0
 11 12  1  0  0  0
M  END
> <minimizedAffinity>
-8.94866

$$$$
