CHEMBL185716


 45 48  0  0  0  0  0  0  0  0999 V2000
  -28.5654   -3.2494   -5.7472 C   0  0  0  0  0  0  0  0  0  0  0  0
  -28.9681   -3.9125   -6.9068 C   0  0  0  0  0  0  0  0  0  0  0  0
  -28.8303   -3.3177   -8.1648 C   0  0  0  0  0  0  0  0  0  0  0  0
  -28.2953   -2.0359   -8.3062 C   0  0  0  0  0  0  0  0  0  0  0  0
  -27.9007   -1.3537   -7.1552 C   0  0  0  0  0  0  0  0  0  0  0  0
  -28.0293   -1.9582   -5.8962 C   0  0  0  0  0  0  0  0  0  0  0  0
  -28.1047   -1.4072   -9.5570 N   0  0  0  0  0  0  0  0  0  0  0  0
  -27.1003   -1.6941  -10.4606 C   0  0  0  0  0  0  0  0  0  0  0  0
  -26.3009   -2.6195  -10.3640 O   0  0  0  0  0  0  0  0  0  0  0  0
  -27.0587   -0.7748  -11.4993 N   0  0  0  0  0  0  0  0  0  0  0  0
  -28.8125   -0.7536   -9.8597 H   0  0  0  0  0  0  0  0  0  0  0  0
  -27.2578    0.1783  -11.2191 H   0  0  0  0  0  0  0  0  0  0  0  0
  -26.0718   -0.9048  -12.5092 C   0  0  0  0  0  0  0  0  0  0  0  0
  -24.8063   -0.3189  -12.3778 C   0  0  0  0  0  0  0  0  0  0  0  0
  -23.8707   -0.3900  -13.4221 C   0  0  0  0  0  0  0  0  0  0  0  0
  -24.2316   -1.0457  -14.6117 C   0  0  0  0  0  0  0  0  0  0  0  0
  -25.4858   -1.6491  -14.7379 C   0  0  0  0  0  0  0  0  0  0  0  0
  -26.3859   -1.5956  -13.6787 C   0  0  0  0  0  0  0  0  0  0  0  0
  -27.5971   -2.1570  -13.8148 F   0  0  0  0  0  0  0  0  0  0  0  0
  -22.4988    0.2260  -13.2788 C   0  0  0  0  0  0  0  0  0  0  0  0
  -21.9101   -0.0127  -12.0744 F   0  0  0  0  0  0  0  0  0  0  0  0
  -21.6276   -0.2446  -14.2152 F   0  0  0  0  0  0  0  0  0  0  0  0
  -22.5126    1.5786  -13.4302 F   0  0  0  0  0  0  0  0  0  0  0  0
  -28.1453   -3.0769   -3.3304 C   0  0  0  0  0  0  0  0  0  0  0  0
  -28.6974   -3.8201   -4.4673 N   0  0  0  0  0  0  0  0  0  0  0  0
  -28.9015   -5.1972   -4.1761 C   0  0  0  0  0  0  0  0  0  0  0  0
  -29.9383   -5.5792   -3.3388 C   0  0  0  0  0  0  0  0  0  0  0  0
  -30.1190   -6.9176   -3.1361 C   0  0  0  0  0  0  0  0  0  0  0  0
  -29.3577   -7.8446   -3.7165 N   0  0  0  0  0  0  0  0  0  0  0  0
  -28.3647   -7.4194   -4.5131 C   0  0  0  0  0  0  0  0  0  0  0  0
  -28.1018   -6.1260   -4.7481 N   0  0  0  0  0  0  0  0  0  0  0  0
  -27.5479   -8.3712   -5.1160 N   0  0  0  0  0  0  0  0  0  0  0  0
  -26.6768   -8.5089   -4.6293 H   0  0  0  0  0  0  0  0  0  0  0  0
  -27.7029   -8.9389   -6.3870 C   0  0  0  0  0  0  0  0  0  0  0  0
  -26.9153  -10.0269   -6.8000 C   0  0  0  0  0  0  0  0  0  0  0  0
  -26.9966  -10.5308   -8.0962 C   0  0  0  0  0  0  0  0  0  0  0  0
  -27.8692   -9.9348   -9.0023 C   0  0  0  0  0  0  0  0  0  0  0  0
  -28.6545   -8.8419   -8.6228 C   0  0  0  0  0  0  0  0  0  0  0  0
  -28.5793   -8.3584   -7.3115 C   0  0  0  0  0  0  0  0  0  0  0  0
  -27.9514  -10.5532  -10.6552 S   0  0  0  0  0  0  0  0  0  0  0  0
  -29.3611   -9.8234  -11.1990 N   0  0  0  0  0  0  0  0  0  0  0  0
  -26.8822   -9.9899  -11.4346 O   0  0  0  0  0  0  0  0  0  0  0  0
  -28.2270  -11.9719  -10.6238 O   0  0  0  0  0  0  0  0  0  0  0  0
  -29.1535   -9.1999  -11.9778 H   0  0  0  0  0  0  0  0  0  0  0  0
  -30.0677  -10.5306  -11.3973 H   0  0  0  0  0  0  0  0  0  0  0  0
 24 25  1  0  0  0
 25  1  1  0  0  0
 25 26  1  0  0  0
  1  2  1  0  0  0
  1  6  2  0  0  0
  2  3  2  0  0  0
  3  4  1  0  0  0
  4  7  1  0  0  0
  4  5  2  0  0  0
  7  8  1  0  0  0
  7 11  1  0  0  0
  8  9  2  0  0  0
  8 10  1  0  0  0
 10 13  1  0  0  0
 10 12  1  0  0  0
 13 14  1  0  0  0
 13 18  2  0  0  0
 14 15  2  0  0  0
 15 20  1  0  0  0
 15 16  1  0  0  0
 20 21  1  0  0  0
 20 22  1  0  0  0
 20 23  1  0  0  0
 16 17  2  0  0  0
 17 18  1  0  0  0
 18 19  1  0  0  0
  5  6  1  0  0  0
 26 27  1  0  0  0
 26 31  2  0  0  0
 27 28  2  0  0  0
 28 29  1  0  0  0
 29 30  2  0  0  0
 30 32  1  0  0  0
 30 31  1  0  0  0
 32 34  1  0  0  0
 32 33  1  0  0  0
 34 35  1  0  0  0
 34 39  2  0  0  0
 35 36  2  0  0  0
 36 37  1  0  0  0
 37 40  1  0  0  0
 37 38  2  0  0  0
 40 41  1  0  0  0
 40 42  2  0  0  0
 40 43  2  0  0  0
 41 44  1  0  0  0
 41 45  1  0  0  0
 38 39  1  0  0  0
M  END
> <minimizedAffinity>
-10.96159

$$$$
