CHEMBL4459052


 32 35  0  0  0  0  0  0  0  0999 V2000
  -26.2972   12.5174  -11.4251 C   0  0  0  0  0  0  0  0  0  0  0  0
  -25.3588   12.5798  -10.3863 C   0  0  0  0  0  0  0  0  0  0  0  0
  -23.9979   12.6590  -10.6754 C   0  0  0  0  0  0  0  0  0  0  0  0
  -23.5714   12.6587  -12.0029 C   0  0  0  0  0  0  0  0  0  0  0  0
  -24.5046   12.6011  -13.0386 C   0  0  0  0  0  0  0  0  0  0  0  0
  -25.8701   12.5564  -12.7596 C   0  0  0  0  0  0  0  0  0  0  0  0
  -28.0544   12.6573   -9.8934 O   0  0  0  0  0  0  0  0  0  0  0  0
  -27.7329   12.4241  -11.0538 C   0  0  0  0  0  0  0  0  0  0  0  0
  -28.5892   12.0400  -12.0673 N   0  0  0  0  0  0  0  0  0  0  0  0
  -28.2233   11.8093  -12.9818 H   0  0  0  0  0  0  0  0  0  0  0  0
  -29.9507   11.8770  -11.8879 C   0  0  0  0  0  0  0  0  0  0  0  0
  -30.8833   12.5688  -11.0942 C   0  0  0  0  0  0  0  0  0  0  0  0
  -32.1216   12.0847  -11.2200 N   0  0  0  0  0  0  0  0  0  0  0  0
  -31.9990   11.0523  -12.0929 N   0  0  0  0  0  0  0  0  0  0  0  0
  -30.6930   10.9111  -12.5204 C   0  0  0  0  0  0  0  0  0  0  0  0
  -33.1259   10.2685  -12.4693 C   0  0  0  0  0  0  0  0  0  0  0  0
  -33.5193    9.1851  -11.6683 C   0  0  0  0  0  0  0  0  0  0  0  0
  -34.6387    8.4251  -12.0162 C   0  0  0  0  0  0  0  0  0  0  0  0
  -35.3665    8.7359  -13.1633 C   0  0  0  0  0  0  0  0  0  0  0  0
  -34.9727    9.8010  -13.9703 C   0  0  0  0  0  0  0  0  0  0  0  0
  -33.8550   10.5657  -13.6293 C   0  0  0  0  0  0  0  0  0  0  0  0
  -24.0422   12.5680  -14.3778 N   0  0  0  0  0  0  0  0  0  0  0  0
  -23.4788   13.3336  -14.7386 H   0  0  0  0  0  0  0  0  0  0  0  0
  -24.8966   11.7055  -15.5481 S   0  0  0  0  0  0  0  0  0  0  0  0
  -25.1927   10.4169  -14.9640 O   0  0  0  0  0  0  0  0  0  0  0  0
  -25.9420   12.5486  -16.0902 O   0  0  0  0  0  0  0  0  0  0  0  0
  -23.6838   11.4482  -16.8275 C   0  0  0  0  0  0  0  0  0  0  0  0
  -24.0581   11.5805  -18.1691 C   0  0  0  0  0  0  0  0  0  0  0  0
  -23.0999   11.4155  -19.1707 C   0  0  0  0  0  0  0  0  0  0  0  0
  -21.7753   11.1322  -18.8320 C   0  0  0  0  0  0  0  0  0  0  0  0
  -21.4027   11.0129  -17.4913 C   0  0  0  0  0  0  0  0  0  0  0  0
  -22.3543   11.1780  -16.4841 C   0  0  0  0  0  0  0  0  0  0  0  0
  7  8  2  0  0  0
  8  9  1  0  0  0
  8  1  1  0  0  0
  9 11  1  0  0  0
  9 10  1  0  0  0
 11 12  1  0  0  0
 11 15  2  0  0  0
 12 13  2  0  0  0
 13 14  1  0  0  0
 14 16  1  0  0  0
 14 15  1  0  0  0
 16 17  1  0  0  0
 16 21  2  0  0  0
 17 18  2  0  0  0
 18 19  1  0  0  0
 19 20  2  0  0  0
 20 21  1  0  0  0
  1  2  1  0  0  0
  1  6  2  0  0  0
  2  3  2  0  0  0
  3  4  1  0  0  0
  4  5  2  0  0  0
  5 22  1  0  0  0
  5  6  1  0  0  0
 22 24  1  0  0  0
 22 23  1  0  0  0
 24 25  2  0  0  0
 24 26  2  0  0  0
 24 27  1  0  0  0
 27 28  1  0  0  0
 27 32  2  0  0  0
 28 29  2  0  0  0
 29 30  1  0  0  0
 30 31  2  0  0  0
 31 32  1  0  0  0
M  END
> <minimizedAffinity>
-6.58405

$$$$
