CHEMBL4553163


 25 28  0  0  0  0  0  0  0  0999 V2000
  -31.1268   -6.2012   -4.7287 C   0  0  0  0  0  0  0  0  0  0  0  0
  -30.5067   -6.9041   -5.9083 C   0  0  0  0  0  0  0  0  0  0  0  0
  -29.1512   -6.7467   -6.2122 C   0  0  0  0  0  0  0  0  0  0  0  0
  -28.5822   -7.4262   -7.2964 C   0  0  0  0  0  0  0  0  0  0  0  0
  -29.3385   -8.2948   -8.1058 C   0  0  0  0  0  0  0  0  0  0  0  0
  -30.7026   -8.4302   -7.7930 C   0  0  0  0  0  0  0  0  0  0  0  0
  -31.2802   -7.7407   -6.7196 C   0  0  0  0  0  0  0  0  0  0  0  0
  -28.7227   -9.0337   -9.2227 C   0  0  0  0  0  0  0  0  0  0  0  0
  -29.4403   -9.8650  -10.0732 C   0  0  0  0  0  0  0  0  0  0  0  0
  -28.9163  -10.5630  -11.1056 N   0  0  0  0  0  0  0  0  0  0  0  0
  -27.6010  -10.4078  -11.2998 C   0  0  0  0  0  0  0  0  0  0  0  0
  -26.7884   -9.6359  -10.5669 N   0  0  0  0  0  0  0  0  0  0  0  0
  -27.3747   -8.9713   -9.5444 C   0  0  0  0  0  0  0  0  0  0  0  0
  -29.5067   -3.0273   -4.4186 C   0  0  0  0  0  0  0  0  0  0  0  0
  -30.5392   -3.7567   -4.9656 C   0  0  0  0  0  0  0  0  0  0  0  0
  -30.4237   -4.9824   -4.3764 N   0  0  0  0  0  0  0  0  0  0  0  0
  -29.3956   -5.0133   -3.5081 N   0  0  0  0  0  0  0  0  0  0  0  0
  -28.8212   -3.8165   -3.5304 N   0  0  0  0  0  0  0  0  0  0  0  0
  -30.7502    1.4855   -6.1663 C   0  0  0  0  0  0  0  0  0  0  0  0
  -29.7175    0.5432   -5.6221 C   0  0  0  0  0  0  0  0  0  0  0  0
  -28.3963    0.9574   -5.4246 C   0  0  0  0  0  0  0  0  0  0  0  0
  -27.4537    0.0753   -4.8964 C   0  0  0  0  0  0  0  0  0  0  0  0
  -27.8252   -1.2275   -4.5573 C   0  0  0  0  0  0  0  0  0  0  0  0
  -29.1403   -1.6660   -4.7560 C   0  0  0  0  0  0  0  0  0  0  0  0
  -30.0800   -0.7705   -5.2886 C   0  0  0  0  0  0  0  0  0  0  0  0
 19 20  1  0  0  0
 20 21  1  0  0  0
 20 25  2  0  0  0
 21 22  2  0  0  0
 22 23  1  0  0  0
 23 24  2  0  0  0
 24 14  1  0  0  0
 24 25  1  0  0  0
 14 15  2  0  0  0
 14 18  1  0  0  0
 15 16  1  0  0  0
 16  1  1  0  0  0
 16 17  1  0  0  0
  1  2  1  0  0  0
  2  3  1  0  0  0
  2  7  2  0  0  0
  3  4  2  0  0  0
  4  5  1  0  0  0
  5  8  1  0  0  0
  5  6  2  0  0  0
  8  9  1  0  0  0
  8 13  2  0  0  0
  9 10  2  0  0  0
 10 11  1  0  0  0
 11 12  2  0  0  0
 12 13  1  0  0  0
  6  7  1  0  0  0
 17 18  2  0  0  0
M  END
> <minimizedAffinity>
-9.24121

$$$$
