CHEMBL1241271


 22 24  0  0  0  0  0  0  0  0999 V2000
  -17.4990    2.5433  -15.6170 C   0  0  0  0  0  0  0  0  0  0  0  0
  -17.3050    3.4263  -16.6187 N   0  0  0  0  0  0  0  0  0  0  0  0
  -15.9683    3.5685  -16.6779 N   0  0  0  0  0  0  0  0  0  0  0  0
  -15.3761    4.5043  -17.6019 C   0  0  0  0  0  0  0  0  0  0  0  0
  -15.2893    2.7714  -15.8044 C   0  0  0  0  0  0  0  0  0  0  0  0
  -13.9540    2.6941  -15.6592 N   0  0  0  0  0  0  0  0  0  0  0  0
  -13.6210    1.8124  -14.7058 C   0  0  0  0  0  0  0  0  0  0  0  0
  -14.4372    1.0509  -13.9526 N   0  0  0  0  0  0  0  0  0  0  0  0
  -15.7733    1.1612  -14.1407 C   0  0  0  0  0  0  0  0  0  0  0  0
  -16.5559    0.3296  -13.3539 N   0  0  0  0  0  0  0  0  0  0  0  0
  -16.2509    2.0662  -15.1043 C   0  0  0  0  0  0  0  0  0  0  0  0
  -15.9978   -0.3817  -12.8990 H   0  0  0  0  0  0  0  0  0  0  0  0
  -17.4124    0.0074  -13.7825 H   0  0  0  0  0  0  0  0  0  0  0  0
  -22.8525    1.1486  -13.9229 C   0  0  0  0  0  0  0  0  0  0  0  0
  -21.4812    1.5259  -14.3932 C   0  0  0  0  0  0  0  0  0  0  0  0
  -20.5884    0.5318  -14.7960 C   0  0  0  0  0  0  0  0  0  0  0  0
  -19.2838    0.8643  -15.1487 C   0  0  0  0  0  0  0  0  0  0  0  0
  -18.8611    2.1996  -15.1994 C   0  0  0  0  0  0  0  0  0  0  0  0
  -19.7624    3.2012  -14.8006 C   0  0  0  0  0  0  0  0  0  0  0  0
  -21.0471    2.8547  -14.3882 C   0  0  0  0  0  0  0  0  0  0  0  0
  -21.9123    3.8230  -13.9564 O   0  0  0  0  0  0  0  0  0  0  0  0
  -21.4403    4.6722  -13.9389 H   0  0  0  0  0  0  0  0  0  0  0  0
 14 15  1  0  0  0
 15 16  1  0  0  0
 15 20  2  0  0  0
 16 17  2  0  0  0
 17 18  1  0  0  0
 18  1  1  0  0  0
 18 19  2  0  0  0
  1  2  2  0  0  0
  1 11  1  0  0  0
  2  3  1  0  0  0
  3  4  1  0  0  0
  3  5  1  0  0  0
  5  6  1  0  0  0
  5 11  2  0  0  0
  6  7  2  0  0  0
  7  8  1  0  0  0
  8  9  2  0  0  0
  9 10  1  0  0  0
  9 11  1  0  0  0
 10 12  1  0  0  0
 10 13  1  0  0  0
 19 20  1  0  0  0
 20 21  1  0  0  0
 21 22  1  0  0  0
M  END
> <minimizedAffinity>
-8.08613

$$$$
