CHEMBL3706833


 28 30  0  0  0  0  0  0  0  0999 V2000
  -29.5964   -4.8136   -6.0321 C   0  0  0  0  0  0  0  0  0  0  0  0
  -29.3833   -3.4389   -5.7869 C   0  0  0  0  0  0  0  0  0  0  0  0
  -28.7297   -2.5857   -6.6698 C   0  0  0  0  0  0  0  0  0  0  0  0
  -28.5072   -1.3123   -6.3167 N   0  0  0  0  0  0  0  0  0  0  0  0
  -27.8480   -0.5468   -7.1948 C   0  0  0  0  0  0  0  0  0  0  0  0
  -27.4253   -0.9267   -8.4021 N   0  0  0  0  0  0  0  0  0  0  0  0
  -27.6643   -2.2019   -8.7615 C   0  0  0  0  0  0  0  0  0  0  0  0
  -28.3043   -3.1061   -7.8910 C   0  0  0  0  0  0  0  0  0  0  0  0
  -28.4934   -4.4845   -8.1457 C   0  0  0  0  0  0  0  0  0  0  0  0
  -29.1357   -5.3483   -7.2406 C   0  0  0  0  0  0  0  0  0  0  0  0
  -27.1896   -2.6611  -10.0039 N   0  0  0  0  0  0  0  0  0  0  0  0
  -27.6249   -3.5119  -10.3564 H   0  0  0  0  0  0  0  0  0  0  0  0
  -26.4276   -1.9940  -10.9447 C   0  0  0  0  0  0  0  0  0  0  0  0
  -25.1723   -1.5464  -10.8124 C   0  0  0  0  0  0  0  0  0  0  0  0
  -24.3920   -0.9745  -11.9193 C   0  0  0  0  0  0  0  0  0  0  0  0
  -23.2932   -0.4788  -11.7059 O   0  0  0  0  0  0  0  0  0  0  0  0
  -24.9713   -1.0784  -13.2754 C   0  0  0  0  0  0  0  0  0  0  0  0
  -24.0584   -0.7940  -14.4369 C   0  0  0  0  0  0  0  0  0  0  0  0
  -26.2543   -1.4397  -13.4248 C   0  0  0  0  0  0  0  0  0  0  0  0
  -27.0921   -1.8326  -12.2818 C   0  0  0  0  0  0  0  0  0  0  0  0
  -28.2853   -2.0800  -12.4336 O   0  0  0  0  0  0  0  0  0  0  0  0
  -29.0418   -6.6383   -7.6744 O   0  0  0  0  0  0  0  0  0  0  0  0
  -30.1818   -7.4775   -7.7437 C   0  0  0  0  0  0  0  0  0  0  0  0
  -30.2074   -5.3998   -4.9519 O   0  0  0  0  0  0  0  0  0  0  0  0
  -29.4100   -5.7162   -3.8313 C   0  0  0  0  0  0  0  0  0  0  0  0
  -29.5418   -7.1634   -3.3815 C   0  0  0  0  0  0  0  0  0  0  0  0
  -27.6856   -8.0027   -4.6058 C   0  0  0  0  0  0  0  0  0  0  0  0
  -29.0940   -7.9440   -4.4938 O   0  0  0  0  0  0  0  0  0  0  0  0
 27 28  1  0  0  0
 28 26  1  0  0  0
 26 25  1  0  0  0
 25 24  1  0  0  0
 24  1  1  0  0  0
  1  2  1  0  0  0
  1 10  2  0  0  0
  2  3  2  0  0  0
  3  4  1  0  0  0
  3  8  1  0  0  0
  4  5  2  0  0  0
  5  6  1  0  0  0
  6  7  2  0  0  0
  7 11  1  0  0  0
  7  8  1  0  0  0
 11 13  1  0  0  0
 11 12  1  0  0  0
 13 14  2  0  0  0
 13 20  1  0  0  0
 14 15  1  0  0  0
 15 16  2  0  0  0
 15 17  1  0  0  0
 17 18  1  0  0  0
 17 19  2  0  0  0
 19 20  1  0  0  0
 20 21  2  0  0  0
  8  9  2  0  0  0
  9 10  1  0  0  0
 10 22  1  0  0  0
 22 23  1  0  0  0
M  END
> <minimizedAffinity>
-7.91024

$$$$
