CHEMBL3952709


 42 45  0  0  0  0  0  0  0  0999 V2000
  -27.4533   -1.9193   -9.2910 C   0  0  0  0  0  0  0  0  0  0  0  0
  -27.9512   -3.1936   -9.0096 C   0  0  0  0  0  0  0  0  0  0  0  0
  -28.5246   -3.4827   -7.7739 C   0  0  0  0  0  0  0  0  0  0  0  0
  -28.6170   -2.5097   -6.7820 C   0  0  0  0  0  0  0  0  0  0  0  0
  -28.1159   -1.2296   -7.0505 C   0  0  0  0  0  0  0  0  0  0  0  0
  -27.5373   -0.9387   -8.2968 C   0  0  0  0  0  0  0  0  0  0  0  0
  -24.4552   -1.0973  -13.3289 C   0  0  0  0  0  0  0  0  0  0  0  0
  -24.7950   -1.2145  -14.6366 N   0  0  0  0  0  0  0  0  0  0  0  0
  -26.0636   -1.5350  -14.9545 C   0  0  0  0  0  0  0  0  0  0  0  0
  -27.0920   -1.7472  -14.1234 N   0  0  0  0  0  0  0  0  0  0  0  0
  -26.7177   -1.6114  -12.8447 C   0  0  0  0  0  0  0  0  0  0  0  0
  -27.5390   -1.7873  -11.7758 N   0  0  0  0  0  0  0  0  0  0  0  0
  -26.8402   -1.6564  -10.5926 C   0  0  0  0  0  0  0  0  0  0  0  0
  -25.5472   -1.3058  -10.9464 C   0  0  0  0  0  0  0  0  0  0  0  0
  -25.4564   -1.2917  -12.3697 C   0  0  0  0  0  0  0  0  0  0  0  0
  -28.5152   -2.0324  -11.8598 H   0  0  0  0  0  0  0  0  0  0  0  0
  -23.1333   -0.8215  -12.9528 N   0  0  0  0  0  0  0  0  0  0  0  0
  -22.9531   -1.3597  -12.1071 H   0  0  0  0  0  0  0  0  0  0  0  0
  -24.1060    1.4520  -12.8356 C   0  0  0  0  0  0  0  0  0  0  0  0
  -22.8385    0.5933  -12.7070 C   0  0  0  0  0  0  0  0  0  0  0  0
  -21.8031    1.0515  -13.7290 C   0  0  0  0  0  0  0  0  0  0  0  0
  -21.0270    0.1097  -14.4238 C   0  0  0  0  0  0  0  0  0  0  0  0
  -20.0433    0.5263  -15.3241 C   0  0  0  0  0  0  0  0  0  0  0  0
  -19.8248    1.8852  -15.5432 C   0  0  0  0  0  0  0  0  0  0  0  0
  -20.5965    2.8308  -14.8728 C   0  0  0  0  0  0  0  0  0  0  0  0
  -21.5832    2.4168  -13.9775 C   0  0  0  0  0  0  0  0  0  0  0  0
  -29.1790   -2.7635   -5.5100 N   0  0  0  0  0  0  0  0  0  0  0  0
  -28.5068   -3.2908   -4.4208 C   0  0  0  0  0  0  0  0  0  0  0  0
  -27.3374   -3.6645   -4.3892 O   0  0  0  0  0  0  0  0  0  0  0  0
  -30.1581   -2.5358   -5.4008 H   0  0  0  0  0  0  0  0  0  0  0  0
  -29.3491   -3.3960   -3.1731 C   0  0  0  0  0  0  0  0  0  0  0  0
  -30.6585   -4.1076   -3.5141 C   0  0  0  0  0  0  0  0  0  0  0  0
  -30.4942   -5.6096   -3.7272 C   0  0  0  0  0  0  0  0  0  0  0  0
  -30.8890   -6.0502   -5.1372 C   0  0  0  0  0  0  0  0  0  0  0  0
  -29.7779   -6.8672   -5.7860 C   0  0  0  0  0  0  0  0  0  0  0  0
  -29.8362   -6.7707   -7.3073 C   0  0  0  0  0  0  0  0  0  0  0  0
  -28.7072   -7.5439   -7.9524 C   0  0  0  0  0  0  0  0  0  0  0  0
  -28.4747   -8.7311   -7.7484 O   0  0  0  0  0  0  0  0  0  0  0  0
  -27.9414   -6.7908   -8.8025 N   0  0  0  0  0  0  0  0  0  0  0  0
  -26.9045   -7.4769   -9.4723 O   0  0  0  0  0  0  0  0  0  0  0  0
  -28.1543   -5.8482   -9.1108 H   0  0  0  0  0  0  0  0  0  0  0  0
  -26.9801   -8.3822   -9.0962 H   0  0  0  0  0  0  0  0  0  0  0  0
 19 20  1  0  0  0
 20 17  1  0  0  0
 20 21  1  0  0  0
 17  7  1  0  0  0
 17 18  1  0  0  0
  7  8  1  0  0  0
  7 15  2  0  0  0
  8  9  2  0  0  0
  9 10  1  0  0  0
 10 11  2  0  0  0
 11 12  1  0  0  0
 11 15  1  0  0  0
 12 13  1  0  0  0
 12 16  1  0  0  0
 13  1  1  0  0  0
 13 14  2  0  0  0
  1  2  1  0  0  0
  1  6  2  0  0  0
  2  3  2  0  0  0
  3  4  1  0  0  0
  4 27  1  0  0  0
  4  5  2  0  0  0
 27 28  1  0  0  0
 27 30  1  0  0  0
 28 29  2  0  0  0
 28 31  1  0  0  0
 31 32  1  0  0  0
 32 33  1  0  0  0
 33 34  1  0  0  0
 34 35  1  0  0  0
 35 36  1  0  0  0
 36 37  1  0  0  0
 37 38  2  0  0  0
 37 39  1  0  0  0
 39 40  1  0  0  0
 39 41  1  0  0  0
 40 42  1  0  0  0
  5  6  1  0  0  0
 14 15  1  0  0  0
 21 22  1  0  0  0
 21 26  2  0  0  0
 22 23  2  0  0  0
 23 24  1  0  0  0
 24 25  2  0  0  0
 25 26  1  0  0  0
M  END
> <minimizedAffinity>
-9.72000

$$$$
