CHEMBL397757


 41 44  0  0  0  0  0  0  0  0999 V2000
  -23.4720   10.8655  -17.9278 C   0  0  0  0  0  0  0  0  0  0  0  0
  -22.4163   10.7509  -17.0146 C   0  0  0  0  0  0  0  0  0  0  0  0
  -21.1300   11.1267  -17.3728 C   0  0  0  0  0  0  0  0  0  0  0  0
  -20.8647   11.7246  -18.6000 C   0  0  0  0  0  0  0  0  0  0  0  0
  -21.9376   11.9212  -19.4664 C   0  0  0  0  0  0  0  0  0  0  0  0
  -23.2382   11.5113  -19.1456 N   0  0  0  0  0  0  0  0  0  0  0  0
  -24.1757   11.7310  -19.9834 O   0  0  0  0  0  0  0  0  0  0  0  0
  -19.5608   12.1353  -18.9791 N   0  0  0  0  0  0  0  0  0  0  0  0
  -18.6706   11.3651  -19.7108 C   0  0  0  0  0  0  0  0  0  0  0  0
  -18.8965   10.2341  -20.1313 O   0  0  0  0  0  0  0  0  0  0  0  0
  -17.4454   11.9828  -19.8922 N   0  0  0  0  0  0  0  0  0  0  0  0
  -19.2478   13.0487  -18.6810 H   0  0  0  0  0  0  0  0  0  0  0  0
  -17.1195   12.5146  -19.0943 H   0  0  0  0  0  0  0  0  0  0  0  0
  -16.4226   11.2937  -20.5991 C   0  0  0  0  0  0  0  0  0  0  0  0
  -15.6476   10.2933  -19.9964 C   0  0  0  0  0  0  0  0  0  0  0  0
  -14.6000    9.6760  -20.7011 C   0  0  0  0  0  0  0  0  0  0  0  0
  -14.3270   10.0930  -22.0151 C   0  0  0  0  0  0  0  0  0  0  0  0
  -15.1016   11.0859  -22.6203 C   0  0  0  0  0  0  0  0  0  0  0  0
  -16.1544   11.6620  -21.9172 C   0  0  0  0  0  0  0  0  0  0  0  0
  -16.8755   12.6366  -22.4936 F   0  0  0  0  0  0  0  0  0  0  0  0
  -13.7720    8.5799  -20.0698 C   0  0  0  0  0  0  0  0  0  0  0  0
  -13.2662    8.9035  -18.8477 F   0  0  0  0  0  0  0  0  0  0  0  0
  -14.4950    7.4402  -19.8813 F   0  0  0  0  0  0  0  0  0  0  0  0
  -12.7062    8.2203  -20.8362 F   0  0  0  0  0  0  0  0  0  0  0  0
  -24.7357   10.3565  -17.6252 O   0  0  0  0  0  0  0  0  0  0  0  0
  -28.8354   11.5552  -13.6323 C   0  0  0  0  0  0  0  0  0  0  0  0
  -27.8555   12.4192  -13.5717 N   0  0  0  0  0  0  0  0  0  0  0  0
  -26.9214   12.0001  -14.4752 C   0  0  0  0  0  0  0  0  0  0  0  0
  -25.6792   12.5614  -14.7856 C   0  0  0  0  0  0  0  0  0  0  0  0
  -24.9074   11.9638  -15.7870 C   0  0  0  0  0  0  0  0  0  0  0  0
  -25.4023   10.8799  -16.5281 C   0  0  0  0  0  0  0  0  0  0  0  0
  -26.6218   10.2673  -16.1860 C   0  0  0  0  0  0  0  0  0  0  0  0
  -27.3487   10.8586  -15.1411 C   0  0  0  0  0  0  0  0  0  0  0  0
  -28.5465   10.5581  -14.5352 N   0  0  0  0  0  0  0  0  0  0  0  0
  -29.1407    9.7769  -14.7629 H   0  0  0  0  0  0  0  0  0  0  0  0
  -31.2216   11.4402  -13.5323 C   0  0  0  0  0  0  0  0  0  0  0  0
  -31.4619   11.2319  -14.7133 O   0  0  0  0  0  0  0  0  0  0  0  0
  -30.0071   11.5703  -12.9176 N   0  0  0  0  0  0  0  0  0  0  0  0
  -30.0149   11.6150  -11.9156 H   0  0  0  0  0  0  0  0  0  0  0  0
  -32.7125   10.2542  -12.1731 C   0  0  0  0  0  0  0  0  0  0  0  0
  -32.1916   11.5239  -12.5781 O   0  0  0  0  0  0  0  0  0  0  0  0
 40 41  1  0  0  0
 41 36  1  0  0  0
 36 37  2  0  0  0
 36 38  1  0  0  0
 38 26  1  0  0  0
 38 39  1  0  0  0
 26 27  2  0  0  0
 26 34  1  0  0  0
 27 28  1  0  0  0
 28 29  1  0  0  0
 28 33  2  0  0  0
 29 30  2  0  0  0
 30 31  1  0  0  0
 31 25  1  0  0  0
 31 32  2  0  0  0
 25  1  1  0  0  0
  1  2  1  0  0  0
  1  6  2  0  0  0
  2  3  2  0  0  0
  3  4  1  0  0  0
  4  8  1  0  0  0
  4  5  2  0  0  0
  8  9  1  0  0  0
  8 12  1  0  0  0
  9 10  2  0  0  0
  9 11  1  0  0  0
 11 14  1  0  0  0
 11 13  1  0  0  0
 14 15  1  0  0  0
 14 19  2  0  0  0
 15 16  2  0  0  0
 16 21  1  0  0  0
 16 17  1  0  0  0
 21 22  1  0  0  0
 21 23  1  0  0  0
 21 24  1  0  0  0
 17 18  2  0  0  0
 18 19  1  0  0  0
 19 20  1  0  0  0
  5  6  1  0  0  0
  6  7  1  0  0  0
 32 33  1  0  0  0
 33 34  1  0  0  0
 34 35  1  0  0  0
M  CHG 1   6   1
M  CHG 1   7  -1
M  END
> <minimizedAffinity>
-6.01049

$$$$
