CHEMBL1681949


 35 37  0  0  0  0  0  0  0  0999 V2000
  -27.2311   -1.6105  -10.5192 C   0  0  0  0  0  0  0  0  0  0  0  0
  -25.9055   -1.6271  -10.0925 C   0  0  0  0  0  0  0  0  0  0  0  0
  -24.8617   -1.5440  -11.0109 C   0  0  0  0  0  0  0  0  0  0  0  0
  -25.1036   -1.4802  -12.3821 C   0  0  0  0  0  0  0  0  0  0  0  0
  -26.4396   -1.6189  -12.8146 C   0  0  0  0  0  0  0  0  0  0  0  0
  -26.8218   -1.6408  -14.5035 Cl  0  0  0  0  0  0  0  0  0  0  0  0
  -27.5026   -1.6809  -11.8877 C   0  0  0  0  0  0  0  0  0  0  0  0
  -24.0357   -1.2605  -13.3035 N   0  0  0  0  0  0  0  0  0  0  0  0
  -23.2507   -0.1091  -13.3264 C   0  0  0  0  0  0  0  0  0  0  0  0
  -23.3799    0.8492  -12.5743 O   0  0  0  0  0  0  0  0  0  0  0  0
  -22.3091   -0.1261  -14.3595 N   0  0  0  0  0  0  0  0  0  0  0  0
  -23.9741   -1.9035  -14.0817 H   0  0  0  0  0  0  0  0  0  0  0  0
  -22.7484   -0.4513  -15.2082 H   0  0  0  0  0  0  0  0  0  0  0  0
  -21.5624    1.0767  -14.5464 C   0  0  0  0  0  0  0  0  0  0  0  0
  -22.2135    2.2839  -14.2606 C   0  0  0  0  0  0  0  0  0  0  0  0
  -21.5193    3.4964  -14.2856 C   0  0  0  0  0  0  0  0  0  0  0  0
  -20.1700    3.5175  -14.6220 C   0  0  0  0  0  0  0  0  0  0  0  0
  -19.5227    2.3269  -14.9307 C   0  0  0  0  0  0  0  0  0  0  0  0
  -20.1986    1.0992  -14.9045 C   0  0  0  0  0  0  0  0  0  0  0  0
  -19.4018    0.0347  -15.2370 O   0  0  0  0  0  0  0  0  0  0  0  0
  -18.0010    0.2437  -15.1848 C   0  0  0  0  0  0  0  0  0  0  0  0
  -28.2719   -1.5164   -9.6057 O   0  0  0  0  0  0  0  0  0  0  0  0
  -28.1592   -2.0756   -7.2547 C   0  0  0  0  0  0  0  0  0  0  0  0
  -28.1976   -3.1038   -6.3134 C   0  0  0  0  0  0  0  0  0  0  0  0
  -28.2052   -2.8703   -4.9384 N   0  0  0  0  0  0  0  0  0  0  0  0
  -28.3528   -4.3952   -6.6469 N   0  0  0  0  0  0  0  0  0  0  0  0
  -28.4314   -4.6675   -7.9502 C   0  0  0  0  0  0  0  0  0  0  0  0
  -28.3600   -3.7710   -8.9357 N   0  0  0  0  0  0  0  0  0  0  0  0
  -28.2683   -2.4686   -8.5756 C   0  0  0  0  0  0  0  0  0  0  0  0
  -27.5345   -2.1458   -4.6790 H   0  0  0  0  0  0  0  0  0  0  0  0
  -28.0939   -3.7470   -4.4412 H   0  0  0  0  0  0  0  0  0  0  0  0
  -28.9533   -0.0443   -6.2516 N   0  0  0  0  0  0  0  0  0  0  0  0
  -27.9832   -0.6745   -6.8400 C   0  0  0  0  0  0  0  0  0  0  0  0
  -28.1032    1.3030   -4.6162 C   0  0  0  0  0  0  0  0  0  0  0  0
  -28.5829    1.2722   -5.9601 O   0  0  0  0  0  0  0  0  0  0  0  0
 34 35  1  0  0  0
 35 32  1  0  0  0
 32 33  2  0  0  0
 33 23  1  0  0  0
 23 24  1  0  0  0
 23 29  2  0  0  0
 24 25  1  0  0  0
 24 26  2  0  0  0
 25 30  1  0  0  0
 25 31  1  0  0  0
 26 27  1  0  0  0
 27 28  2  0  0  0
 28 29  1  0  0  0
 29 22  1  0  0  0
 22  1  1  0  0  0
  1  2  1  0  0  0
  1  7  2  0  0  0
  2  3  2  0  0  0
  3  4  1  0  0  0
  4  8  1  0  0  0
  4  5  2  0  0  0
  8  9  1  0  0  0
  8 12  1  0  0  0
  9 10  2  0  0  0
  9 11  1  0  0  0
 11 14  1  0  0  0
 11 13  1  0  0  0
 14 15  1  0  0  0
 14 19  2  0  0  0
 15 16  2  0  0  0
 16 17  1  0  0  0
 17 18  2  0  0  0
 18 19  1  0  0  0
 19 20  1  0  0  0
 20 21  1  0  0  0
  5  6  1  0  0  0
  5  7  1  0  0  0
M  END
> <minimizedAffinity>
-7.54984

$$$$
