CHEMBL3970399


 28 31  0  0  0  0  0  0  0  0999 V2000
  -27.1712   10.9677  -15.5000 C   0  0  0  0  0  0  0  0  0  0  0  0
  -28.1567   10.2654  -16.1873 C   0  0  0  0  0  0  0  0  0  0  0  0
  -29.5012   10.5145  -15.9063 C   0  0  0  0  0  0  0  0  0  0  0  0
  -29.8900   11.4775  -14.9656 C   0  0  0  0  0  0  0  0  0  0  0  0
  -28.8744   12.1705  -14.2830 C   0  0  0  0  0  0  0  0  0  0  0  0
  -27.5215   11.9206  -14.5427 C   0  0  0  0  0  0  0  0  0  0  0  0
  -25.4325    9.4049  -16.6616 O   0  0  0  0  0  0  0  0  0  0  0  0
  -25.4747   10.5649  -15.8015 S   0  0  0  0  0  0  0  0  0  0  0  0
  -24.7914   10.5613  -14.5203 O   0  0  0  0  0  0  0  0  0  0  0  0
  -24.9041   11.9521  -16.5745 N   0  0  0  0  0  0  0  0  0  0  0  0
  -24.7647   12.6363  -15.8334 H   0  0  0  0  0  0  0  0  0  0  0  0
  -23.7070   11.7130  -17.2772 C   0  0  0  0  0  0  0  0  0  0  0  0
  -22.6023   11.4036  -16.6395 N   0  0  0  0  0  0  0  0  0  0  0  0
  -21.6159   11.1061  -17.5631 C   0  0  0  0  0  0  0  0  0  0  0  0
  -21.9900   11.2055  -18.8868 C   0  0  0  0  0  0  0  0  0  0  0  0
  -23.6500   11.6270  -18.9828 S   0  0  0  0  0  0  0  0  0  0  0  0
  -31.2205   11.6545  -14.5363 N   0  0  0  0  0  0  0  0  0  0  0  0
  -31.8582   11.9036  -15.2803 H   0  0  0  0  0  0  0  0  0  0  0  0
  -31.9013   11.0967  -13.4248 C   0  0  0  0  0  0  0  0  0  0  0  0
  -31.3687   11.1860  -12.1835 N   0  0  0  0  0  0  0  0  0  0  0  0
  -32.0533   10.7793  -11.0771 N   0  0  0  0  0  0  0  0  0  0  0  0
  -33.2765   10.2511  -11.2306 C   0  0  0  0  0  0  0  0  0  0  0  0
  -33.8711   10.0688  -12.4704 C   0  0  0  0  0  0  0  0  0  0  0  0
  -35.1351    9.4650  -12.5906 C   0  0  0  0  0  0  0  0  0  0  0  0
  -35.7330    9.3130  -13.8391 C   0  0  0  0  0  0  0  0  0  0  0  0
  -35.0902    9.7892  -14.9751 C   0  0  0  0  0  0  0  0  0  0  0  0
  -33.8338   10.3913  -14.8656 C   0  0  0  0  0  0  0  0  0  0  0  0
  -33.1800   10.5198  -13.6136 C   0  0  0  0  0  0  0  0  0  0  0  0
  7  8  2  0  0  0
  8  9  2  0  0  0
  8 10  1  0  0  0
  8  1  1  0  0  0
 10 12  1  0  0  0
 10 11  1  0  0  0
 12 13  2  0  0  0
 12 16  1  0  0  0
 13 14  1  0  0  0
 14 15  2  0  0  0
 15 16  1  0  0  0
  1  2  1  0  0  0
  1  6  2  0  0  0
  2  3  2  0  0  0
  3  4  1  0  0  0
  4 17  1  0  0  0
  4  5  2  0  0  0
 17 19  1  0  0  0
 17 18  1  0  0  0
 19 20  1  0  0  0
 19 28  2  0  0  0
 20 21  2  0  0  0
 21 22  1  0  0  0
 22 23  2  0  0  0
 23 24  1  0  0  0
 23 28  1  0  0  0
 24 25  2  0  0  0
 25 26  1  0  0  0
 26 27  2  0  0  0
 27 28  1  0  0  0
  5  6  1  0  0  0
M  END
> <minimizedAffinity>
-6.83437

$$$$
