CHEMBL2113173


 32 34  0  0  0  0  0  0  0  0999 V2000
  -15.0202    4.0916  -16.5293 C   0  0  0  0  0  0  0  0  0  0  0  0
  -16.3054    3.5133  -16.4708 C   0  0  0  0  0  0  0  0  0  0  0  0
  -16.5925    2.3548  -15.7491 C   0  0  0  0  0  0  0  0  0  0  0  0
  -17.8283    1.8120  -15.7932 N   0  0  0  0  0  0  0  0  0  0  0  0
  -18.0124    0.6670  -15.1265 C   0  0  0  0  0  0  0  0  0  0  0  0
  -17.0957    0.0038  -14.4100 N   0  0  0  0  0  0  0  0  0  0  0  0
  -15.8823    0.5849  -14.3343 C   0  0  0  0  0  0  0  0  0  0  0  0
  -15.5643    1.7699  -15.0189 C   0  0  0  0  0  0  0  0  0  0  0  0
  -14.2826    2.3483  -15.0520 C   0  0  0  0  0  0  0  0  0  0  0  0
  -13.9907    3.5038  -15.7846 C   0  0  0  0  0  0  0  0  0  0  0  0
  -14.8693    0.0021  -13.5055 N   0  0  0  0  0  0  0  0  0  0  0  0
  -15.1339    0.2826  -12.5573 H   0  0  0  0  0  0  0  0  0  0  0  0
  -14.6613   -1.3765  -13.5449 C   0  0  0  0  0  0  0  0  0  0  0  0
  -13.8782   -2.0064  -14.4382 C   0  0  0  0  0  0  0  0  0  0  0  0
  -13.7596   -3.4939  -14.4081 C   0  0  0  0  0  0  0  0  0  0  0  0
  -12.8322   -4.0908  -14.9445 O   0  0  0  0  0  0  0  0  0  0  0  0
  -14.8394   -4.2472  -13.6956 C   0  0  0  0  0  0  0  0  0  0  0  0
  -15.5190   -3.6123  -12.7316 C   0  0  0  0  0  0  0  0  0  0  0  0
  -16.6965   -4.4126  -11.7515 Cl  0  0  0  0  0  0  0  0  0  0  0  0
  -15.2860   -2.1801  -12.4466 C   0  0  0  0  0  0  0  0  0  0  0  0
  -15.5723   -1.6433  -11.3796 O   0  0  0  0  0  0  0  0  0  0  0  0
  -12.8894   -1.0820  -15.5433 S   0  0  0  0  0  0  0  0  0  0  0  0
  -11.4533   -0.6246  -14.5617 C   0  0  0  0  0  0  0  0  0  0  0  0
  -15.0646   -5.5972  -13.9472 O   0  0  0  0  0  0  0  0  0  0  0  0
  -14.3089   -6.4956  -13.1375 C   0  0  0  0  0  0  0  0  0  0  0  0
  -12.6493    3.7645  -15.7738 O   0  0  0  0  0  0  0  0  0  0  0  0
  -12.0166    4.1568  -14.5658 C   0  0  0  0  0  0  0  0  0  0  0  0
  -14.9999    5.1600  -17.3995 O   0  0  0  0  0  0  0  0  0  0  0  0
  -14.9278    4.8695  -18.7809 C   0  0  0  0  0  0  0  0  0  0  0  0
  -13.5431    4.4523  -19.2515 C   0  0  0  0  0  0  0  0  0  0  0  0
  -12.4344    2.4715  -19.9593 C   0  0  0  0  0  0  0  0  0  0  0  0
  -13.6176    3.0334  -19.4263 O   0  0  0  0  0  0  0  0  0  0  0  0
 31 32  1  0  0  0
 32 30  1  0  0  0
 30 29  1  0  0  0
 29 28  1  0  0  0
 28  1  1  0  0  0
  1  2  1  0  0  0
  1 10  2  0  0  0
  2  3  2  0  0  0
  3  4  1  0  0  0
  3  8  1  0  0  0
  4  5  2  0  0  0
  5  6  1  0  0  0
  6  7  2  0  0  0
  7 11  1  0  0  0
  7  8  1  0  0  0
 11 13  1  0  0  0
 11 12  1  0  0  0
 13 14  2  0  0  0
 13 20  1  0  0  0
 14 22  1  0  0  0
 14 15  1  0  0  0
 22 23  1  0  0  0
 15 16  2  0  0  0
 15 17  1  0  0  0
 17 24  1  0  0  0
 17 18  2  0  0  0
 24 25  1  0  0  0
 18 19  1  0  0  0
 18 20  1  0  0  0
 20 21  2  0  0  0
  8  9  2  0  0  0
  9 10  1  0  0  0
 10 26  1  0  0  0
 26 27  1  0  0  0
M  END
> <minimizedAffinity>
-5.70340

$$$$
