CHEMBL3354185


 32 36  0  0  0  0  0  0  0  0999 V2000
  -23.0920   -0.8234  -13.9799 N   0  0  0  0  0  0  0  0  0  0  0  0
  -23.0389   -1.4390  -14.7795 H   0  0  0  0  0  0  0  0  0  0  0  0
  -24.2497   -1.0986  -13.2433 C   0  0  0  0  0  0  0  0  0  0  0  0
  -24.2161   -1.2141  -11.8559 C   0  0  0  0  0  0  0  0  0  0  0  0
  -25.4216   -1.5043  -11.2380 C   0  0  0  0  0  0  0  0  0  0  0  0
  -25.7698   -1.6389   -9.9232 N   0  0  0  0  0  0  0  0  0  0  0  0
  -27.1012   -1.9514   -9.8624 C   0  0  0  0  0  0  0  0  0  0  0  0
  -27.6254   -2.0219  -11.0720 N   0  0  0  0  0  0  0  0  0  0  0  0
  -26.5944   -1.7265  -11.9411 C   0  0  0  0  0  0  0  0  0  0  0  0
  -26.5489   -1.6285  -13.3335 C   0  0  0  0  0  0  0  0  0  0  0  0
  -25.3789   -1.3100  -13.9652 N   0  0  0  0  0  0  0  0  0  0  0  0
  -25.1543   -1.5235   -9.1330 H   0  0  0  0  0  0  0  0  0  0  0  0
  -27.8364   -2.1743   -8.6010 C   0  0  0  0  0  0  0  0  0  0  0  0
  -27.8918   -1.3374   -7.4753 C   0  0  0  0  0  0  0  0  0  0  0  0
  -28.6538   -1.8512   -6.5019 N   0  0  0  0  0  0  0  0  0  0  0  0
  -29.0754   -3.0184   -7.0158 N   0  0  0  0  0  0  0  0  0  0  0  0
  -28.6191   -3.2594   -8.2808 C   0  0  0  0  0  0  0  0  0  0  0  0
  -29.6756   -3.6040   -6.4405 H   0  0  0  0  0  0  0  0  0  0  0  0
  -20.5121    1.5451  -14.8574 C   0  0  0  0  0  0  0  0  0  0  0  0
  -21.0652    2.7217  -14.5327 N   0  0  0  0  0  0  0  0  0  0  0  0
  -22.2820    2.7000  -13.9643 C   0  0  0  0  0  0  0  0  0  0  0  0
  -22.9824    1.5479  -13.7149 C   0  0  0  0  0  0  0  0  0  0  0  0
  -22.3657    0.3744  -14.0830 C   0  0  0  0  0  0  0  0  0  0  0  0
  -21.1363    0.3805  -14.6298 N   0  0  0  0  0  0  0  0  0  0  0  0
  -16.5303    2.0139  -14.9217 C   0  0  0  0  0  0  0  0  0  0  0  0
  -17.2322    0.7299  -14.4579 C   0  0  0  0  0  0  0  0  0  0  0  0
  -18.4154    0.3720  -15.3637 C   0  0  0  0  0  0  0  0  0  0  0  0
  -19.3022    1.5217  -15.5150 N   0  0  0  0  0  0  0  0  0  0  0  0
  -18.6912    2.7646  -15.9607 C   0  0  0  0  0  0  0  0  0  0  0  0
  -17.5569    3.1504  -15.0166 C   0  0  0  0  0  0  0  0  0  0  0  0
  -14.7442    0.9137  -16.0863 C   0  0  0  0  0  0  0  0  0  0  0  0
  -15.8995    1.7354  -16.1811 O   0  0  0  0  0  0  0  0  0  0  0  0
 31 32  1  0  0  0
 32 25  1  0  0  0
 25 26  1  0  0  0
 25 30  1  0  0  0
 26 27  1  0  0  0
 27 28  1  0  0  0
 28 19  1  0  0  0
 28 29  1  0  0  0
 19 20  1  0  0  0
 19 24  2  0  0  0
 20 21  2  0  0  0
 21 22  1  0  0  0
 22 23  2  0  0  0
 23  1  1  0  0  0
 23 24  1  0  0  0
  1  3  1  0  0  0
  1  2  1  0  0  0
  3  4  1  0  0  0
  3 11  2  0  0  0
  4  5  2  0  0  0
  5  6  1  0  0  0
  5  9  1  0  0  0
  6  7  1  0  0  0
  6 12  1  0  0  0
  7 13  1  0  0  0
  7  8  2  0  0  0
 13 14  1  0  0  0
 13 17  2  0  0  0
 14 15  2  0  0  0
 15 16  1  0  0  0
 16 17  1  0  0  0
 16 18  1  0  0  0
  8  9  1  0  0  0
  9 10  2  0  0  0
 10 11  1  0  0  0
 29 30  1  0  0  0
M  END
> <minimizedAffinity>
-8.86063

$$$$
