CHEMBL512605


 30 34  0  0  0  0  0  0  0  0999 V2000
  -29.6915   11.7491  -11.9965 C   0  0  0  0  0  0  0  0  0  0  0  0
  -30.6491   11.9794  -10.9868 C   0  0  0  0  0  0  0  0  0  0  0  0
  -30.2599   12.4070   -9.7265 C   0  0  0  0  0  0  0  0  0  0  0  0
  -28.9207   12.6563   -9.4816 C   0  0  0  0  0  0  0  0  0  0  0  0
  -27.9901   12.5584  -10.5224 C   0  0  0  0  0  0  0  0  0  0  0  0
  -28.3509   12.1598  -11.8288 C   0  0  0  0  0  0  0  0  0  0  0  0
  -29.4856    9.8965  -13.4661 O   0  0  0  0  0  0  0  0  0  0  0  0
  -30.1737   10.8343  -13.0731 C   0  0  0  0  0  0  0  0  0  0  0  0
  -31.5117   11.1489  -13.6329 C   0  0  0  0  0  0  0  0  0  0  0  0
  -31.7091   12.1818  -14.4821 N   0  0  0  0  0  0  0  0  0  0  0  0
  -33.0368   12.2823  -14.5835 N   0  0  0  0  0  0  0  0  0  0  0  0
  -33.7119   11.4263  -13.7660 C   0  0  0  0  0  0  0  0  0  0  0  0
  -35.0469   11.3801  -13.3696 C   0  0  0  0  0  0  0  0  0  0  0  0
  -35.4275   10.2867  -12.5892 C   0  0  0  0  0  0  0  0  0  0  0  0
  -34.5302    9.2554  -12.3039 C   0  0  0  0  0  0  0  0  0  0  0  0
  -33.1798    9.3593  -12.6590 C   0  0  0  0  0  0  0  0  0  0  0  0
  -32.7538   10.5169  -13.3316 C   0  0  0  0  0  0  0  0  0  0  0  0
  -33.4211   12.9828  -15.2075 H   0  0  0  0  0  0  0  0  0  0  0  0
  -27.2961   12.0868  -12.7598 N   0  0  0  0  0  0  0  0  0  0  0  0
  -26.4681   12.5546  -12.3873 H   0  0  0  0  0  0  0  0  0  0  0  0
  -27.5287   12.5341  -14.1374 C   0  0  0  0  0  0  0  0  0  0  0  0
  -26.4997   11.9124  -15.0724 C   0  0  0  0  0  0  0  0  0  0  0  0
  -26.7892   10.7099  -15.7757 C   0  0  0  0  0  0  0  0  0  0  0  0
  -25.8337   10.1165  -16.6188 C   0  0  0  0  0  0  0  0  0  0  0  0
  -24.6187   10.7349  -16.7383 C   0  0  0  0  0  0  0  0  0  0  0  0
  -24.3250   11.8985  -16.0593 C   0  0  0  0  0  0  0  0  0  0  0  0
  -25.2378   12.4994  -15.2203 C   0  0  0  0  0  0  0  0  0  0  0  0
  -23.0669   12.3485  -16.3200 O   0  0  0  0  0  0  0  0  0  0  0  0
  -22.6194   11.3616  -17.2757 C   0  0  0  0  0  0  0  0  0  0  0  0
  -23.5805   10.3104  -17.5108 O   0  0  0  0  0  0  0  0  0  0  0  0
  7  8  2  0  0  0
  8  1  1  0  0  0
  8  9  1  0  0  0
  1  2  1  0  0  0
  1  6  2  0  0  0
  2  3  2  0  0  0
  3  4  1  0  0  0
  4  5  2  0  0  0
  5  6  1  0  0  0
  6 19  1  0  0  0
 19 21  1  0  0  0
 19 20  1  0  0  0
 21 22  1  0  0  0
 22 23  1  0  0  0
 22 27  2  0  0  0
 23 24  2  0  0  0
 24 25  1  0  0  0
 25 26  2  0  0  0
 25 30  1  0  0  0
 26 27  1  0  0  0
 26 28  1  0  0  0
 28 29  1  0  0  0
 29 30  1  0  0  0
  9 10  2  0  0  0
  9 17  1  0  0  0
 10 11  1  0  0  0
 11 12  1  0  0  0
 11 18  1  0  0  0
 12 13  1  0  0  0
 12 17  2  0  0  0
 13 14  2  0  0  0
 14 15  1  0  0  0
 15 16  2  0  0  0
 16 17  1  0  0  0
M  END
> <minimizedAffinity>
-6.25475

$$$$
