CHEMBL2220442


 33 35  0  0  0  0  0  0  0  0999 V2000
   12.9532   20.0421   39.9160 N   0  0  0  0  0  0  0  0  0  0  0  0
   12.8811   21.2310   39.1873 C   0  0  0  0  0  0  0  0  0  0  0  0
   12.3682   22.2075   40.0483 C   0  0  0  0  0  0  0  0  0  0  0  0
   12.1004   21.6002   41.3124 C   0  0  0  0  0  0  0  0  0  0  0  0
   11.5119   22.0565   42.5166 C   0  0  0  0  0  0  0  0  0  0  0  0
   11.3729   21.1901   43.6047 C   0  0  0  0  0  0  0  0  0  0  0  0
   11.8308   19.8839   43.5186 C   0  0  0  0  0  0  0  0  0  0  0  0
   12.4162   19.4106   42.3418 C   0  0  0  0  0  0  0  0  0  0  0  0
   12.5247   20.2781   41.2332 C   0  0  0  0  0  0  0  0  0  0  0  0
   12.1338   23.6090   39.7018 C   0  0  0  0  0  0  0  0  0  0  0  0
   10.8419   24.1039   39.4806 C   0  0  0  0  0  0  0  0  0  0  0  0
   10.6447   25.4579   39.1900 C   0  0  0  0  0  0  0  0  0  0  0  0
   11.7353   26.3188   39.1416 C   0  0  0  0  0  0  0  0  0  0  0  0
   11.5421   27.6159   38.8683 F   0  0  0  0  0  0  0  0  0  0  0  0
   13.0215   25.8546   39.3819 C   0  0  0  0  0  0  0  0  0  0  0  0
   13.2208   24.4999   39.6596 C   0  0  0  0  0  0  0  0  0  0  0  0
   11.9699   18.0880   38.7703 C   0  0  0  0  0  0  0  0  0  0  0  0
   13.2005   18.6558   39.4875 C   0  0  0  0  0  0  0  0  0  0  0  0
   14.4555   18.3181   38.6885 C   0  0  0  0  0  0  0  0  0  0  0  0
   13.1991   21.3211   37.7981 C   0  0  0  0  0  0  0  0  0  0  0  0
   12.2725   21.2128   36.8303 C   0  0  0  0  0  0  0  0  0  0  0  0
   12.5656   21.2343   35.3464 C   0  0  0  0  0  0  0  0  0  0  0  0
   13.8933   20.7486   35.1372 O   0  0  0  0  0  0  0  0  0  0  0  0
   14.2956   20.5580   36.0028 H   0  0  0  0  0  0  0  0  0  0  0  0
   11.5896   20.3626   34.5259 C   0  0  0  0  0  0  0  0  0  0  0  0
   10.1923   20.9990   34.3497 C   0  0  0  0  0  0  0  0  0  0  0  0
   10.3462   22.2670   33.7057 O   0  0  0  0  0  0  0  0  0  0  0  0
   11.0033   22.7631   34.2425 H   0  0  0  0  0  0  0  0  0  0  0  0
    9.3050   20.1446   33.4407 C   0  0  0  0  0  0  0  0  0  0  0  0
    9.3556   20.6023   32.0003 C   0  0  0  0  0  0  0  0  0  0  0  0
    8.4296   21.1186   31.3888 O   0  0  0  0  0  0  0  0  0  0  0  0
   10.5206   20.2790   31.3873 O   0  0  0  0  0  0  0  0  0  0  0  0
   11.1768   19.8611   31.9760 H   0  0  0  0  0  0  0  0  0  0  0  0
 17 18  1  0  0  0
 18 19  1  0  0  0
 18  1  1  0  0  0
  1  2  1  0  0  0
  2 20  1  0  0  0
 20 21  2  0  0  0
 21 22  1  0  0  0
 22 23  1  0  0  0
 22 25  1  0  0  0
 25 26  1  0  0  0
 26 27  1  0  0  0
 26 29  1  0  0  0
 29 30  1  0  0  0
 30 31  2  0  0  0
 30 32  1  0  0  0
  2  3  2  0  0  0
  3 10  1  0  0  0
 10 11  2  0  0  0
 11 12  1  0  0  0
 12 13  2  0  0  0
 13 14  1  0  0  0
 13 15  1  0  0  0
 15 16  2  0  0  0
 10 16  1  0  0  0
  3  4  1  0  0  0
  4  5  2  0  0  0
  5  6  1  0  0  0
  6  7  2  0  0  0
  7  8  1  0  0  0
  8  9  2  0  0  0
  4  9  1  0  0  0
  1  9  1  0  0  0
 23 24  1  0  0  0
 27 28  1  0  0  0
 32 33  1  0  0  0
M  END
> <minimizedAffinity>
-7.13787

$$$$
CHEMBL25719


 12 11  0  0  0  0  0  0  0  0999 V2000
   22.3900   22.5811   38.3934 C   0  0  0  0  0  0  0  0  0  0  0  0
   23.8015   23.0980   38.6458 C   0  0  0  0  0  0  0  0  0  0  0  0
   24.5933   23.7512   37.5414 C   0  0  0  0  0  0  0  0  0  0  0  0
   24.3467   22.9394   39.8724 C   0  0  0  0  0  0  0  0  0  0  0  0
   25.7171   23.3909   40.2731 C   0  0  0  0  0  0  0  0  0  0  0  0
   25.7023   23.7499   41.6465 O   0  0  0  0  0  0  0  0  0  0  0  0
   25.1306   24.5316   41.7263 H   0  0  0  0  0  0  0  0  0  0  0  0
   21.3914   23.5800   37.7890 C   0  0  0  0  0  0  0  0  0  0  0  0
   19.5565   25.8109   40.4054 C   0  0  0  0  0  0  0  0  0  0  0  0
   20.5851   25.3121   39.4297 C   0  0  0  0  0  0  0  0  0  0  0  0
   21.8037   26.1693   39.2178 C   0  0  0  0  0  0  0  0  0  0  0  0
   20.4052   24.1430   38.7791 C   0  0  0  0  0  0  0  0  0  0  0  0
  9 10  1  0  0  0
 10 11  1  0  0  0
 10 12  2  0  0  0
 12  8  1  0  0  0
  8  1  1  0  0  0
  1  2  1  0  0  0
  2  3  1  0  0  0
  2  4  2  0  0  0
  4  5  1  0  0  0
  5  6  1  0  0  0
  6  7  1  0  0  0
M  END
> <minimizedAffinity>
-6.62170

$$$$
CHEMBL515


 20 20  0  0  0  0  0  0  0  0999 V2000
   21.1734   24.4135   38.4637 C   0  0  0  0  0  0  0  0  0  0  0  0
   22.2062   25.3086   38.2074 C   0  0  0  0  0  0  0  0  0  0  0  0
   23.4915   24.8629   37.8497 C   0  0  0  0  0  0  0  0  0  0  0  0
   23.8372   23.5140   37.7287 C   0  0  0  0  0  0  0  0  0  0  0  0
   22.7427   22.6374   37.9197 C   0  0  0  0  0  0  0  0  0  0  0  0
   21.4474   23.0646   38.2779 C   0  0  0  0  0  0  0  0  0  0  0  0
   19.8024   24.8941   38.8738 C   0  0  0  0  0  0  0  0  0  0  0  0
   19.8289   25.6574   40.2063 C   0  0  0  0  0  0  0  0  0  0  0  0
   18.6587   26.6252   40.3445 C   0  0  0  0  0  0  0  0  0  0  0  0
   19.9753   28.6153   40.1047 O   0  0  0  0  0  0  0  0  0  0  0  0
   18.9051   28.0538   39.9028 C   0  0  0  0  0  0  0  0  0  0  0  0
   17.9008   28.6859   39.2676 O   0  0  0  0  0  0  0  0  0  0  0  0
   17.0803   28.1846   39.1213 H   0  0  0  0  0  0  0  0  0  0  0  0
   25.1193   23.0494   37.4106 N   0  0  0  0  0  0  0  0  0  0  0  0
   25.6003   22.4717   36.1221 C   0  0  0  0  0  0  0  0  0  0  0  0
   26.3700   23.2886   35.0989 C   0  0  0  0  0  0  0  0  0  0  0  0
   26.7601   22.2816   33.6676 Cl  0  0  0  0  0  0  0  0  0  0  0  0
   26.2066   23.3973   38.3881 C   0  0  0  0  0  0  0  0  0  0  0  0
   26.1997   22.6598   39.7328 C   0  0  0  0  0  0  0  0  0  0  0  0
   25.1475   23.4989   40.9058 Cl  0  0  0  0  0  0  0  0  0  0  0  0
 10 11  2  0  0  0
 11 12  1  0  0  0
 11  9  1  0  0  0
  9  8  1  0  0  0
  8  7  1  0  0  0
  7  1  1  0  0  0
  1  2  2  0  0  0
  2  3  1  0  0  0
  3  4  2  0  0  0
  4 14  1  0  0  0
 14 15  1  0  0  0
 15 16  1  0  0  0
 16 17  1  0  0  0
 14 18  1  0  0  0
 18 19  1  0  0  0
 19 20  1  0  0  0
  4  5  1  0  0  0
  5  6  2  0  0  0
  1  6  1  0  0  0
 12 13  1  0  0  0
M  END
> <minimizedAffinity>
-7.70315

$$$$
